
---------- Begin Simulation Statistics ----------
simSeconds                                   0.313441                       # Number of seconds simulated (Second)
simTicks                                 313441006500                       # Number of ticks simulated (Tick)
finalTick                                313441006500                       # Number of ticks from beginning of simulation (restored from checkpoints and never reset) (Tick)
simFreq                                  1000000000000                       # The number of ticks per simulated second ((Tick/Second))
hostSeconds                                  33895.22                       # Real time elapsed on the host (Second)
hostTickRate                                  9247350                       # The number of ticks simulated per host second (ticks/s) ((Tick/Second))
hostMemory                                     936252                       # Number of bytes of host memory used (Byte)
simInsts                                   2563431072                       # Number of instructions simulated (Count)
simOps                                     4023772464                       # Number of ops (including micro ops) simulated (Count)
hostInstRate                                    75628                       # Simulator instruction rate (inst/s) ((Count/Second))
hostOpRate                                     118712                       # Simulator op (including micro ops) rate (op/s) ((Count/Second))
system.clk_domain.clock                          1000                       # Clock period in ticks (Tick)
system.cpu0.numCycles                       238787533                       # Number of cpu cycles simulated (Cycle)
system.cpu0.cpi                              1.198750                       # CPI: cycles per instruction (core level) ((Cycle/Count))
system.cpu0.ipc                              0.834203                       # IPC: instructions per cycle (core level) ((Count/Cycle))
system.cpu0.numWorkItemsStarted                     0                       # Number of work items this cpu started (Count)
system.cpu0.numWorkItemsCompleted                   0                       # Number of work items this cpu completed (Count)
system.cpu0.instsAdded                      452850845                       # Number of instructions added to the IQ (excludes non-spec) (Count)
system.cpu0.nonSpecInstsAdded                 9194705                       # Number of non-speculative instructions added to the IQ (Count)
system.cpu0.instsIssued                     434832329                       # Number of instructions issued (Count)
system.cpu0.squashedInstsIssued                342353                       # Number of squashed instructions issued (Count)
system.cpu0.squashedInstsExamined           118602340                       # Number of squashed instructions iterated over during squash; mainly for profiling (Count)
system.cpu0.squashedOperandsExamined        134580501                       # Number of squashed operands that are examined and possibly removed from graph (Count)
system.cpu0.squashedNonSpecRemoved            3194086                       # Number of squashed non-spec instructions that were removed (Count)
system.cpu0.numIssuedDist::samples          238600079                       # Number of insts issued each cycle (Count)
system.cpu0.numIssuedDist::mean              1.822432                       # Number of insts issued each cycle (Count)
system.cpu0.numIssuedDist::stdev             2.131291                       # Number of insts issued each cycle (Count)
system.cpu0.numIssuedDist::underflows               0      0.00%      0.00% # Number of insts issued each cycle (Count)
system.cpu0.numIssuedDist::0                 97863412     41.02%     41.02% # Number of insts issued each cycle (Count)
system.cpu0.numIssuedDist::1                 39805899     16.68%     57.70% # Number of insts issued each cycle (Count)
system.cpu0.numIssuedDist::2                 28856164     12.09%     69.79% # Number of insts issued each cycle (Count)
system.cpu0.numIssuedDist::3                 18337183      7.69%     77.48% # Number of insts issued each cycle (Count)
system.cpu0.numIssuedDist::4                 17546793      7.35%     84.83% # Number of insts issued each cycle (Count)
system.cpu0.numIssuedDist::5                 16122696      6.76%     91.59% # Number of insts issued each cycle (Count)
system.cpu0.numIssuedDist::6                 11731909      4.92%     96.51% # Number of insts issued each cycle (Count)
system.cpu0.numIssuedDist::7                  5577737      2.34%     98.84% # Number of insts issued each cycle (Count)
system.cpu0.numIssuedDist::8                  2758286      1.16%    100.00% # Number of insts issued each cycle (Count)
system.cpu0.numIssuedDist::overflows                0      0.00%    100.00% # Number of insts issued each cycle (Count)
system.cpu0.numIssuedDist::min_value                0                       # Number of insts issued each cycle (Count)
system.cpu0.numIssuedDist::max_value                8                       # Number of insts issued each cycle (Count)
system.cpu0.numIssuedDist::total            238600079                       # Number of insts issued each cycle (Count)
system.cpu0.statFuBusy::No_OpClass                  0      0.00%      0.00% # attempts to use FU when none available (Count)
system.cpu0.statFuBusy::IntAlu                1877861     13.22%     13.22% # attempts to use FU when none available (Count)
system.cpu0.statFuBusy::IntMult                     0      0.00%     13.22% # attempts to use FU when none available (Count)
system.cpu0.statFuBusy::IntDiv                      0      0.00%     13.22% # attempts to use FU when none available (Count)
system.cpu0.statFuBusy::FloatAdd                    0      0.00%     13.22% # attempts to use FU when none available (Count)
system.cpu0.statFuBusy::FloatCmp                    0      0.00%     13.22% # attempts to use FU when none available (Count)
system.cpu0.statFuBusy::FloatCvt                    0      0.00%     13.22% # attempts to use FU when none available (Count)
system.cpu0.statFuBusy::FloatMult                   0      0.00%     13.22% # attempts to use FU when none available (Count)
system.cpu0.statFuBusy::FloatMultAcc                0      0.00%     13.22% # attempts to use FU when none available (Count)
system.cpu0.statFuBusy::FloatDiv                    0      0.00%     13.22% # attempts to use FU when none available (Count)
system.cpu0.statFuBusy::FloatMisc                   0      0.00%     13.22% # attempts to use FU when none available (Count)
system.cpu0.statFuBusy::FloatSqrt                   0      0.00%     13.22% # attempts to use FU when none available (Count)
system.cpu0.statFuBusy::SimdAdd                     0      0.00%     13.22% # attempts to use FU when none available (Count)
system.cpu0.statFuBusy::SimdAddAcc                  0      0.00%     13.22% # attempts to use FU when none available (Count)
system.cpu0.statFuBusy::SimdAlu                   115      0.00%     13.22% # attempts to use FU when none available (Count)
system.cpu0.statFuBusy::SimdCmp                     0      0.00%     13.22% # attempts to use FU when none available (Count)
system.cpu0.statFuBusy::SimdCvt                     6      0.00%     13.22% # attempts to use FU when none available (Count)
system.cpu0.statFuBusy::SimdMisc                   10      0.00%     13.22% # attempts to use FU when none available (Count)
system.cpu0.statFuBusy::SimdMult                    0      0.00%     13.22% # attempts to use FU when none available (Count)
system.cpu0.statFuBusy::SimdMultAcc                 0      0.00%     13.22% # attempts to use FU when none available (Count)
system.cpu0.statFuBusy::SimdMatMultAcc              0      0.00%     13.22% # attempts to use FU when none available (Count)
system.cpu0.statFuBusy::SimdShift                   0      0.00%     13.22% # attempts to use FU when none available (Count)
system.cpu0.statFuBusy::SimdShiftAcc                0      0.00%     13.22% # attempts to use FU when none available (Count)
system.cpu0.statFuBusy::SimdDiv                     0      0.00%     13.22% # attempts to use FU when none available (Count)
system.cpu0.statFuBusy::SimdSqrt                    0      0.00%     13.22% # attempts to use FU when none available (Count)
system.cpu0.statFuBusy::SimdFloatAdd                1      0.00%     13.22% # attempts to use FU when none available (Count)
system.cpu0.statFuBusy::SimdFloatAlu                0      0.00%     13.22% # attempts to use FU when none available (Count)
system.cpu0.statFuBusy::SimdFloatCmp                0      0.00%     13.22% # attempts to use FU when none available (Count)
system.cpu0.statFuBusy::SimdFloatCvt                0      0.00%     13.22% # attempts to use FU when none available (Count)
system.cpu0.statFuBusy::SimdFloatDiv                0      0.00%     13.22% # attempts to use FU when none available (Count)
system.cpu0.statFuBusy::SimdFloatMisc               0      0.00%     13.22% # attempts to use FU when none available (Count)
system.cpu0.statFuBusy::SimdFloatMult               0      0.00%     13.22% # attempts to use FU when none available (Count)
system.cpu0.statFuBusy::SimdFloatMultAcc            0      0.00%     13.22% # attempts to use FU when none available (Count)
system.cpu0.statFuBusy::SimdFloatMatMultAcc            0      0.00%     13.22% # attempts to use FU when none available (Count)
system.cpu0.statFuBusy::SimdFloatSqrt               0      0.00%     13.22% # attempts to use FU when none available (Count)
system.cpu0.statFuBusy::SimdReduceAdd               0      0.00%     13.22% # attempts to use FU when none available (Count)
system.cpu0.statFuBusy::SimdReduceAlu               0      0.00%     13.22% # attempts to use FU when none available (Count)
system.cpu0.statFuBusy::SimdReduceCmp               0      0.00%     13.22% # attempts to use FU when none available (Count)
system.cpu0.statFuBusy::SimdFloatReduceAdd            0      0.00%     13.22% # attempts to use FU when none available (Count)
system.cpu0.statFuBusy::SimdFloatReduceCmp            0      0.00%     13.22% # attempts to use FU when none available (Count)
system.cpu0.statFuBusy::SimdAes                     0      0.00%     13.22% # attempts to use FU when none available (Count)
system.cpu0.statFuBusy::SimdAesMix                  0      0.00%     13.22% # attempts to use FU when none available (Count)
system.cpu0.statFuBusy::SimdSha1Hash                0      0.00%     13.22% # attempts to use FU when none available (Count)
system.cpu0.statFuBusy::SimdSha1Hash2               0      0.00%     13.22% # attempts to use FU when none available (Count)
system.cpu0.statFuBusy::SimdSha256Hash              0      0.00%     13.22% # attempts to use FU when none available (Count)
system.cpu0.statFuBusy::SimdSha256Hash2             0      0.00%     13.22% # attempts to use FU when none available (Count)
system.cpu0.statFuBusy::SimdShaSigma2               0      0.00%     13.22% # attempts to use FU when none available (Count)
system.cpu0.statFuBusy::SimdShaSigma3               0      0.00%     13.22% # attempts to use FU when none available (Count)
system.cpu0.statFuBusy::SimdPredAlu                 0      0.00%     13.22% # attempts to use FU when none available (Count)
system.cpu0.statFuBusy::Matrix                      0      0.00%     13.22% # attempts to use FU when none available (Count)
system.cpu0.statFuBusy::MatrixMov                   0      0.00%     13.22% # attempts to use FU when none available (Count)
system.cpu0.statFuBusy::MatrixOP                    0      0.00%     13.22% # attempts to use FU when none available (Count)
system.cpu0.statFuBusy::MemRead               4195617     29.54%     42.77% # attempts to use FU when none available (Count)
system.cpu0.statFuBusy::MemWrite              4900891     34.51%     77.27% # attempts to use FU when none available (Count)
system.cpu0.statFuBusy::FloatMemRead          1460591     10.28%     87.56% # attempts to use FU when none available (Count)
system.cpu0.statFuBusy::FloatMemWrite         1767047     12.44%    100.00% # attempts to use FU when none available (Count)
system.cpu0.statFuBusy::IprAccess                   0      0.00%    100.00% # attempts to use FU when none available (Count)
system.cpu0.statFuBusy::InstPrefetch                0      0.00%    100.00% # attempts to use FU when none available (Count)
system.cpu0.statFuBusy::SimdUnitStrideLoad            0      0.00%    100.00% # attempts to use FU when none available (Count)
system.cpu0.statFuBusy::SimdUnitStrideStore            0      0.00%    100.00% # attempts to use FU when none available (Count)
system.cpu0.statFuBusy::SimdUnitStrideMaskLoad            0      0.00%    100.00% # attempts to use FU when none available (Count)
system.cpu0.statFuBusy::SimdUnitStrideMaskStore            0      0.00%    100.00% # attempts to use FU when none available (Count)
system.cpu0.statFuBusy::SimdStridedLoad             0      0.00%    100.00% # attempts to use FU when none available (Count)
system.cpu0.statFuBusy::SimdStridedStore            0      0.00%    100.00% # attempts to use FU when none available (Count)
system.cpu0.statFuBusy::SimdIndexedLoad             0      0.00%    100.00% # attempts to use FU when none available (Count)
system.cpu0.statFuBusy::SimdIndexedStore            0      0.00%    100.00% # attempts to use FU when none available (Count)
system.cpu0.statFuBusy::SimdWholeRegisterLoad            0      0.00%    100.00% # attempts to use FU when none available (Count)
system.cpu0.statFuBusy::SimdWholeRegisterStore            0      0.00%    100.00% # attempts to use FU when none available (Count)
system.cpu0.statFuBusy::SimdUnitStrideFaultOnlyFirstLoad            0      0.00%    100.00% # attempts to use FU when none available (Count)
system.cpu0.statFuBusy::SimdUnitStrideSegmentedLoad            0      0.00%    100.00% # attempts to use FU when none available (Count)
system.cpu0.statFuBusy::SimdUnitStrideSegmentedStore            0      0.00%    100.00% # attempts to use FU when none available (Count)
system.cpu0.statFuBusy::SimdUnitStrideSegmentedFaultOnlyFirstLoad            0      0.00%    100.00% # attempts to use FU when none available (Count)
system.cpu0.statFuBusy::SimdStrideSegmentedLoad            0      0.00%    100.00% # attempts to use FU when none available (Count)
system.cpu0.statFuBusy::SimdStrideSegmentedStore            0      0.00%    100.00% # attempts to use FU when none available (Count)
system.cpu0.statFuBusy::SimdExt                     0      0.00%    100.00% # attempts to use FU when none available (Count)
system.cpu0.statFuBusy::SimdFloatExt                0      0.00%    100.00% # attempts to use FU when none available (Count)
system.cpu0.statFuBusy::SimdConfig                  0      0.00%    100.00% # attempts to use FU when none available (Count)
system.cpu0.statIssuedInstType_0::No_OpClass     14094743      3.24%      3.24% # Number of instructions issued per FU type, per thread (Count)
system.cpu0.statIssuedInstType_0::IntAlu    275813610     63.43%     66.67% # Number of instructions issued per FU type, per thread (Count)
system.cpu0.statIssuedInstType_0::IntMult      2000178      0.46%     67.13% # Number of instructions issued per FU type, per thread (Count)
system.cpu0.statIssuedInstType_0::IntDiv          101      0.00%     67.13% # Number of instructions issued per FU type, per thread (Count)
system.cpu0.statIssuedInstType_0::FloatAdd      2130848      0.49%     67.62% # Number of instructions issued per FU type, per thread (Count)
system.cpu0.statIssuedInstType_0::FloatCmp            0      0.00%     67.62% # Number of instructions issued per FU type, per thread (Count)
system.cpu0.statIssuedInstType_0::FloatCvt            0      0.00%     67.62% # Number of instructions issued per FU type, per thread (Count)
system.cpu0.statIssuedInstType_0::FloatMult            0      0.00%     67.62% # Number of instructions issued per FU type, per thread (Count)
system.cpu0.statIssuedInstType_0::FloatMultAcc            0      0.00%     67.62% # Number of instructions issued per FU type, per thread (Count)
system.cpu0.statIssuedInstType_0::FloatDiv            0      0.00%     67.62% # Number of instructions issued per FU type, per thread (Count)
system.cpu0.statIssuedInstType_0::FloatMisc            0      0.00%     67.62% # Number of instructions issued per FU type, per thread (Count)
system.cpu0.statIssuedInstType_0::FloatSqrt            0      0.00%     67.62% # Number of instructions issued per FU type, per thread (Count)
system.cpu0.statIssuedInstType_0::SimdAdd           28      0.00%     67.62% # Number of instructions issued per FU type, per thread (Count)
system.cpu0.statIssuedInstType_0::SimdAddAcc            0      0.00%     67.62% # Number of instructions issued per FU type, per thread (Count)
system.cpu0.statIssuedInstType_0::SimdAlu         1140      0.00%     67.62% # Number of instructions issued per FU type, per thread (Count)
system.cpu0.statIssuedInstType_0::SimdCmp            6      0.00%     67.62% # Number of instructions issued per FU type, per thread (Count)
system.cpu0.statIssuedInstType_0::SimdCvt          522      0.00%     67.62% # Number of instructions issued per FU type, per thread (Count)
system.cpu0.statIssuedInstType_0::SimdMisc      2131577      0.49%     68.11% # Number of instructions issued per FU type, per thread (Count)
system.cpu0.statIssuedInstType_0::SimdMult            0      0.00%     68.11% # Number of instructions issued per FU type, per thread (Count)
system.cpu0.statIssuedInstType_0::SimdMultAcc            0      0.00%     68.11% # Number of instructions issued per FU type, per thread (Count)
system.cpu0.statIssuedInstType_0::SimdMatMultAcc            0      0.00%     68.11% # Number of instructions issued per FU type, per thread (Count)
system.cpu0.statIssuedInstType_0::SimdShift            0      0.00%     68.11% # Number of instructions issued per FU type, per thread (Count)
system.cpu0.statIssuedInstType_0::SimdShiftAcc            0      0.00%     68.11% # Number of instructions issued per FU type, per thread (Count)
system.cpu0.statIssuedInstType_0::SimdDiv            0      0.00%     68.11% # Number of instructions issued per FU type, per thread (Count)
system.cpu0.statIssuedInstType_0::SimdSqrt            0      0.00%     68.11% # Number of instructions issued per FU type, per thread (Count)
system.cpu0.statIssuedInstType_0::SimdFloatAdd           19      0.00%     68.11% # Number of instructions issued per FU type, per thread (Count)
system.cpu0.statIssuedInstType_0::SimdFloatAlu            0      0.00%     68.11% # Number of instructions issued per FU type, per thread (Count)
system.cpu0.statIssuedInstType_0::SimdFloatCmp            0      0.00%     68.11% # Number of instructions issued per FU type, per thread (Count)
system.cpu0.statIssuedInstType_0::SimdFloatCvt            9      0.00%     68.11% # Number of instructions issued per FU type, per thread (Count)
system.cpu0.statIssuedInstType_0::SimdFloatDiv            2      0.00%     68.11% # Number of instructions issued per FU type, per thread (Count)
system.cpu0.statIssuedInstType_0::SimdFloatMisc            0      0.00%     68.11% # Number of instructions issued per FU type, per thread (Count)
system.cpu0.statIssuedInstType_0::SimdFloatMult           12      0.00%     68.11% # Number of instructions issued per FU type, per thread (Count)
system.cpu0.statIssuedInstType_0::SimdFloatMultAcc            0      0.00%     68.11% # Number of instructions issued per FU type, per thread (Count)
system.cpu0.statIssuedInstType_0::SimdFloatMatMultAcc            0      0.00%     68.11% # Number of instructions issued per FU type, per thread (Count)
system.cpu0.statIssuedInstType_0::SimdFloatSqrt            0      0.00%     68.11% # Number of instructions issued per FU type, per thread (Count)
system.cpu0.statIssuedInstType_0::SimdReduceAdd            0      0.00%     68.11% # Number of instructions issued per FU type, per thread (Count)
system.cpu0.statIssuedInstType_0::SimdReduceAlu            0      0.00%     68.11% # Number of instructions issued per FU type, per thread (Count)
system.cpu0.statIssuedInstType_0::SimdReduceCmp            0      0.00%     68.11% # Number of instructions issued per FU type, per thread (Count)
system.cpu0.statIssuedInstType_0::SimdFloatReduceAdd            0      0.00%     68.11% # Number of instructions issued per FU type, per thread (Count)
system.cpu0.statIssuedInstType_0::SimdFloatReduceCmp            0      0.00%     68.11% # Number of instructions issued per FU type, per thread (Count)
system.cpu0.statIssuedInstType_0::SimdAes            0      0.00%     68.11% # Number of instructions issued per FU type, per thread (Count)
system.cpu0.statIssuedInstType_0::SimdAesMix            0      0.00%     68.11% # Number of instructions issued per FU type, per thread (Count)
system.cpu0.statIssuedInstType_0::SimdSha1Hash            0      0.00%     68.11% # Number of instructions issued per FU type, per thread (Count)
system.cpu0.statIssuedInstType_0::SimdSha1Hash2            0      0.00%     68.11% # Number of instructions issued per FU type, per thread (Count)
system.cpu0.statIssuedInstType_0::SimdSha256Hash            0      0.00%     68.11% # Number of instructions issued per FU type, per thread (Count)
system.cpu0.statIssuedInstType_0::SimdSha256Hash2            0      0.00%     68.11% # Number of instructions issued per FU type, per thread (Count)
system.cpu0.statIssuedInstType_0::SimdShaSigma2            0      0.00%     68.11% # Number of instructions issued per FU type, per thread (Count)
system.cpu0.statIssuedInstType_0::SimdShaSigma3            0      0.00%     68.11% # Number of instructions issued per FU type, per thread (Count)
system.cpu0.statIssuedInstType_0::SimdPredAlu            0      0.00%     68.11% # Number of instructions issued per FU type, per thread (Count)
system.cpu0.statIssuedInstType_0::Matrix            0      0.00%     68.11% # Number of instructions issued per FU type, per thread (Count)
system.cpu0.statIssuedInstType_0::MatrixMov            0      0.00%     68.11% # Number of instructions issued per FU type, per thread (Count)
system.cpu0.statIssuedInstType_0::MatrixOP            0      0.00%     68.11% # Number of instructions issued per FU type, per thread (Count)
system.cpu0.statIssuedInstType_0::MemRead     79559549     18.30%     86.41% # Number of instructions issued per FU type, per thread (Count)
system.cpu0.statIssuedInstType_0::MemWrite     45406186     10.44%     96.85% # Number of instructions issued per FU type, per thread (Count)
system.cpu0.statIssuedInstType_0::FloatMemRead      6071167      1.40%     98.25% # Number of instructions issued per FU type, per thread (Count)
system.cpu0.statIssuedInstType_0::FloatMemWrite      7622632      1.75%    100.00% # Number of instructions issued per FU type, per thread (Count)
system.cpu0.statIssuedInstType_0::IprAccess            0      0.00%    100.00% # Number of instructions issued per FU type, per thread (Count)
system.cpu0.statIssuedInstType_0::InstPrefetch            0      0.00%    100.00% # Number of instructions issued per FU type, per thread (Count)
system.cpu0.statIssuedInstType_0::SimdUnitStrideLoad            0      0.00%    100.00% # Number of instructions issued per FU type, per thread (Count)
system.cpu0.statIssuedInstType_0::SimdUnitStrideStore            0      0.00%    100.00% # Number of instructions issued per FU type, per thread (Count)
system.cpu0.statIssuedInstType_0::SimdUnitStrideMaskLoad            0      0.00%    100.00% # Number of instructions issued per FU type, per thread (Count)
system.cpu0.statIssuedInstType_0::SimdUnitStrideMaskStore            0      0.00%    100.00% # Number of instructions issued per FU type, per thread (Count)
system.cpu0.statIssuedInstType_0::SimdStridedLoad            0      0.00%    100.00% # Number of instructions issued per FU type, per thread (Count)
system.cpu0.statIssuedInstType_0::SimdStridedStore            0      0.00%    100.00% # Number of instructions issued per FU type, per thread (Count)
system.cpu0.statIssuedInstType_0::SimdIndexedLoad            0      0.00%    100.00% # Number of instructions issued per FU type, per thread (Count)
system.cpu0.statIssuedInstType_0::SimdIndexedStore            0      0.00%    100.00% # Number of instructions issued per FU type, per thread (Count)
system.cpu0.statIssuedInstType_0::SimdWholeRegisterLoad            0      0.00%    100.00% # Number of instructions issued per FU type, per thread (Count)
system.cpu0.statIssuedInstType_0::SimdWholeRegisterStore            0      0.00%    100.00% # Number of instructions issued per FU type, per thread (Count)
system.cpu0.statIssuedInstType_0::SimdUnitStrideFaultOnlyFirstLoad            0      0.00%    100.00% # Number of instructions issued per FU type, per thread (Count)
system.cpu0.statIssuedInstType_0::SimdUnitStrideSegmentedLoad            0      0.00%    100.00% # Number of instructions issued per FU type, per thread (Count)
system.cpu0.statIssuedInstType_0::SimdUnitStrideSegmentedStore            0      0.00%    100.00% # Number of instructions issued per FU type, per thread (Count)
system.cpu0.statIssuedInstType_0::SimdUnitStrideSegmentedFaultOnlyFirstLoad            0      0.00%    100.00% # Number of instructions issued per FU type, per thread (Count)
system.cpu0.statIssuedInstType_0::SimdStrideSegmentedLoad            0      0.00%    100.00% # Number of instructions issued per FU type, per thread (Count)
system.cpu0.statIssuedInstType_0::SimdStrideSegmentedStore            0      0.00%    100.00% # Number of instructions issued per FU type, per thread (Count)
system.cpu0.statIssuedInstType_0::SimdExt            0      0.00%    100.00% # Number of instructions issued per FU type, per thread (Count)
system.cpu0.statIssuedInstType_0::SimdFloatExt            0      0.00%    100.00% # Number of instructions issued per FU type, per thread (Count)
system.cpu0.statIssuedInstType_0::SimdConfig            0      0.00%    100.00% # Number of instructions issued per FU type, per thread (Count)
system.cpu0.statIssuedInstType_0::total     434832329                       # Number of instructions issued per FU type, per thread (Count)
system.cpu0.issueRate                        1.821001                       # Inst issue rate ((Count/Cycle))
system.cpu0.fuBusy                           14202139                       # FU busy when requested (Count)
system.cpu0.fuBusyRate                       0.032661                       # FU busy rate (busy events/executed inst) ((Count/Count))
system.cpu0.intInstQueueReads              1081192416                       # Number of integer instruction queue reads (Count)
system.cpu0.intInstQueueWrites              553165882                       # Number of integer instruction queue writes (Count)
system.cpu0.intInstQueueWakeupAccesses      410360736                       # Number of integer instruction queue wakeup accesses (Count)
system.cpu0.fpInstQueueReads                 41616813                       # Number of floating instruction queue reads (Count)
system.cpu0.fpInstQueueWrites                29417610                       # Number of floating instruction queue writes (Count)
system.cpu0.fpInstQueueWakeupAccesses        17044705                       # Number of floating instruction queue wakeup accesses (Count)
system.cpu0.vecInstQueueReads                       0                       # Number of vector instruction queue reads (Count)
system.cpu0.vecInstQueueWrites                      0                       # Number of vector instruction queue writes (Count)
system.cpu0.vecInstQueueWakeupAccesses              0                       # Number of vector instruction queue wakeup accesses (Count)
system.cpu0.intAluAccesses                  412688379                       # Number of integer alu accesses (Count)
system.cpu0.fpAluAccesses                    22251346                       # Number of floating point alu accesses (Count)
system.cpu0.vecAluAccesses                          0                       # Number of vector alu accesses (Count)
system.cpu0.numRecvResp                      92606037                       # Number of received responses (Count)
system.cpu0.numRecvRespBytes                612011975                       # Number of received response bytes (Byte)
system.cpu0.recvRespAvgBW                        2.56                       # Average bandwidth of received responses ((Byte/Cycle))
system.cpu0.recvRespAvgSize                      6.61                       # Average packet size per received response ((Byte/Count))
system.cpu0.recvRespAvgRate                      0.39                       # Average rate of received responses per cycle ((Count/Cycle))
system.cpu0.recvRespAvgRetryRate                 0.00                       # Average retry rate per received response ((Count/Count))
system.cpu0.numSendRetryResp                        0                       # Number of retry responses sent (Count)
system.cpu0.numSquashedInsts                  2461146                       # Number of squashed instructions skipped in execute (Count)
system.cpu0.numSwp                                  0                       # Number of swp insts executed (Count)
system.cpu0.timesIdled                           1561                       # Number of times that the entire CPU went into an idle state and unscheduled itself (Count)
system.cpu0.idleCycles                         187454                       # Total number of cycles that the CPU has spent unscheduled due to idling (Cycle)
system.cpu0.quiesceCycles                   388094481                       # Total number of cycles that CPU has spent quiesced or waiting for an interrupt (Cycle)
system.cpu0.MemDepUnit__0.insertedLoads      93706205                       # Number of loads inserted to the mem dependence unit. (Count)
system.cpu0.MemDepUnit__0.insertedStores     56787241                       # Number of stores inserted to the mem dependence unit. (Count)
system.cpu0.MemDepUnit__0.conflictingLoads     46683885                       # Number of conflicting loads. (Count)
system.cpu0.MemDepUnit__0.conflictingStores     21860318                       # Number of conflicting stores. (Count)
system.cpu0.MemDepUnit__1.insertedLoads             0                       # Number of loads inserted to the mem dependence unit. (Count)
system.cpu0.MemDepUnit__1.insertedStores            0                       # Number of stores inserted to the mem dependence unit. (Count)
system.cpu0.MemDepUnit__1.conflictingLoads            0                       # Number of conflicting loads. (Count)
system.cpu0.MemDepUnit__1.conflictingStores            0                       # Number of conflicting stores. (Count)
system.cpu0.MemDepUnit__2.insertedLoads             0                       # Number of loads inserted to the mem dependence unit. (Count)
system.cpu0.MemDepUnit__2.insertedStores            0                       # Number of stores inserted to the mem dependence unit. (Count)
system.cpu0.MemDepUnit__2.conflictingLoads            0                       # Number of conflicting loads. (Count)
system.cpu0.MemDepUnit__2.conflictingStores            0                       # Number of conflicting stores. (Count)
system.cpu0.MemDepUnit__3.insertedLoads             0                       # Number of loads inserted to the mem dependence unit. (Count)
system.cpu0.MemDepUnit__3.insertedStores            0                       # Number of stores inserted to the mem dependence unit. (Count)
system.cpu0.MemDepUnit__3.conflictingLoads            0                       # Number of conflicting loads. (Count)
system.cpu0.MemDepUnit__3.conflictingStores            0                       # Number of conflicting stores. (Count)
system.cpu0.branchPred.lookups_0::NoBranch            0      0.00%      0.00% # Number of BP lookups (Count)
system.cpu0.branchPred.lookups_0::Return     10663843     21.98%     21.98% # Number of BP lookups (Count)
system.cpu0.branchPred.lookups_0::CallDirect     11661662     24.03%     46.01% # Number of BP lookups (Count)
system.cpu0.branchPred.lookups_0::CallIndirect          509      0.00%     46.01% # Number of BP lookups (Count)
system.cpu0.branchPred.lookups_0::DirectCond     23599959     48.63%     94.64% # Number of BP lookups (Count)
system.cpu0.branchPred.lookups_0::DirectUncond      2598254      5.35%    100.00% # Number of BP lookups (Count)
system.cpu0.branchPred.lookups_0::IndirectCond            0      0.00%    100.00% # Number of BP lookups (Count)
system.cpu0.branchPred.lookups_0::IndirectUncond         1041      0.00%    100.00% # Number of BP lookups (Count)
system.cpu0.branchPred.lookups_0::total      48525268                       # Number of BP lookups (Count)
system.cpu0.branchPred.squashes_0::NoBranch            0      0.00%      0.00% # Number of branches that got squashed (completely removed) as an earlier branch was mispredicted. (Count)
system.cpu0.branchPred.squashes_0::Return      2661793     16.16%     16.16% # Number of branches that got squashed (completely removed) as an earlier branch was mispredicted. (Count)
system.cpu0.branchPred.squashes_0::CallDirect      3659899     22.22%     38.39% # Number of branches that got squashed (completely removed) as an earlier branch was mispredicted. (Count)
system.cpu0.branchPred.squashes_0::CallIndirect          217      0.00%     38.39% # Number of branches that got squashed (completely removed) as an earlier branch was mispredicted. (Count)
system.cpu0.branchPred.squashes_0::DirectCond      8984195     54.55%     92.94% # Number of branches that got squashed (completely removed) as an earlier branch was mispredicted. (Count)
system.cpu0.branchPred.squashes_0::DirectUncond      1162173      7.06%    100.00% # Number of branches that got squashed (completely removed) as an earlier branch was mispredicted. (Count)
system.cpu0.branchPred.squashes_0::IndirectCond            0      0.00%    100.00% # Number of branches that got squashed (completely removed) as an earlier branch was mispredicted. (Count)
system.cpu0.branchPred.squashes_0::IndirectUncond          738      0.00%    100.00% # Number of branches that got squashed (completely removed) as an earlier branch was mispredicted. (Count)
system.cpu0.branchPred.squashes_0::total     16469015                       # Number of branches that got squashed (completely removed) as an earlier branch was mispredicted. (Count)
system.cpu0.branchPred.corrected_0::NoBranch            0      0.00%      0.00% # Number of branches that got corrected but not yet commited. Branches get corrected by decode or after execute. Also a branch misprediction can be detected out-of-order. Therefore, a corrected branch might not end up beeing committed in case an even earlier branch was mispredicted (Count)
system.cpu0.branchPred.corrected_0::Return            8      0.00%      0.00% # Number of branches that got corrected but not yet commited. Branches get corrected by decode or after execute. Also a branch misprediction can be detected out-of-order. Therefore, a corrected branch might not end up beeing committed in case an even earlier branch was mispredicted (Count)
system.cpu0.branchPred.corrected_0::CallDirect          730      0.26%      0.27% # Number of branches that got corrected but not yet commited. Branches get corrected by decode or after execute. Also a branch misprediction can be detected out-of-order. Therefore, a corrected branch might not end up beeing committed in case an even earlier branch was mispredicted (Count)
system.cpu0.branchPred.corrected_0::CallIndirect          132      0.05%      0.32% # Number of branches that got corrected but not yet commited. Branches get corrected by decode or after execute. Also a branch misprediction can be detected out-of-order. Therefore, a corrected branch might not end up beeing committed in case an even earlier branch was mispredicted (Count)
system.cpu0.branchPred.corrected_0::DirectCond       274580     99.50%     99.82% # Number of branches that got corrected but not yet commited. Branches get corrected by decode or after execute. Also a branch misprediction can be detected out-of-order. Therefore, a corrected branch might not end up beeing committed in case an even earlier branch was mispredicted (Count)
system.cpu0.branchPred.corrected_0::DirectUncond          335      0.12%     99.94% # Number of branches that got corrected but not yet commited. Branches get corrected by decode or after execute. Also a branch misprediction can be detected out-of-order. Therefore, a corrected branch might not end up beeing committed in case an even earlier branch was mispredicted (Count)
system.cpu0.branchPred.corrected_0::IndirectCond            0      0.00%     99.94% # Number of branches that got corrected but not yet commited. Branches get corrected by decode or after execute. Also a branch misprediction can be detected out-of-order. Therefore, a corrected branch might not end up beeing committed in case an even earlier branch was mispredicted (Count)
system.cpu0.branchPred.corrected_0::IndirectUncond          164      0.06%    100.00% # Number of branches that got corrected but not yet commited. Branches get corrected by decode or after execute. Also a branch misprediction can be detected out-of-order. Therefore, a corrected branch might not end up beeing committed in case an even earlier branch was mispredicted (Count)
system.cpu0.branchPred.corrected_0::total       275949                       # Number of branches that got corrected but not yet commited. Branches get corrected by decode or after execute. Also a branch misprediction can be detected out-of-order. Therefore, a corrected branch might not end up beeing committed in case an even earlier branch was mispredicted (Count)
system.cpu0.branchPred.earlyResteers_0::NoBranch            0                       # Number of branches that got redirected after decode. (Count)
system.cpu0.branchPred.earlyResteers_0::Return            0                       # Number of branches that got redirected after decode. (Count)
system.cpu0.branchPred.earlyResteers_0::CallDirect            0                       # Number of branches that got redirected after decode. (Count)
system.cpu0.branchPred.earlyResteers_0::CallIndirect            0                       # Number of branches that got redirected after decode. (Count)
system.cpu0.branchPred.earlyResteers_0::DirectCond            0                       # Number of branches that got redirected after decode. (Count)
system.cpu0.branchPred.earlyResteers_0::DirectUncond            0                       # Number of branches that got redirected after decode. (Count)
system.cpu0.branchPred.earlyResteers_0::IndirectCond            0                       # Number of branches that got redirected after decode. (Count)
system.cpu0.branchPred.earlyResteers_0::IndirectUncond            0                       # Number of branches that got redirected after decode. (Count)
system.cpu0.branchPred.earlyResteers_0::total            0                       # Number of branches that got redirected after decode. (Count)
system.cpu0.branchPred.committed_0::NoBranch            0      0.00%      0.00% # Number of branches finally committed  (Count)
system.cpu0.branchPred.committed_0::Return      8002050     24.96%     24.96% # Number of branches finally committed  (Count)
system.cpu0.branchPred.committed_0::CallDirect      8001763     24.96%     49.92% # Number of branches finally committed  (Count)
system.cpu0.branchPred.committed_0::CallIndirect          292      0.00%     49.93% # Number of branches finally committed  (Count)
system.cpu0.branchPred.committed_0::DirectCond     14615763     45.59%     95.52% # Number of branches finally committed  (Count)
system.cpu0.branchPred.committed_0::DirectUncond      1436081      4.48%    100.00% # Number of branches finally committed  (Count)
system.cpu0.branchPred.committed_0::IndirectCond            0      0.00%    100.00% # Number of branches finally committed  (Count)
system.cpu0.branchPred.committed_0::IndirectUncond          303      0.00%    100.00% # Number of branches finally committed  (Count)
system.cpu0.branchPred.committed_0::total     32056252                       # Number of branches finally committed  (Count)
system.cpu0.branchPred.mispredicted_0::NoBranch            0      0.00%      0.00% # Number of committed branches that were mispredicted. (Count)
system.cpu0.branchPred.mispredicted_0::Return            0      0.00%      0.00% # Number of committed branches that were mispredicted. (Count)
system.cpu0.branchPred.mispredicted_0::CallDirect          507      0.18%      0.18% # Number of committed branches that were mispredicted. (Count)
system.cpu0.branchPred.mispredicted_0::CallIndirect          128      0.05%      0.23% # Number of committed branches that were mispredicted. (Count)
system.cpu0.branchPred.mispredicted_0::DirectCond       274334     99.66%     99.89% # Number of committed branches that were mispredicted. (Count)
system.cpu0.branchPred.mispredicted_0::DirectUncond          182      0.07%     99.95% # Number of committed branches that were mispredicted. (Count)
system.cpu0.branchPred.mispredicted_0::IndirectCond            0      0.00%     99.95% # Number of committed branches that were mispredicted. (Count)
system.cpu0.branchPred.mispredicted_0::IndirectUncond          128      0.05%    100.00% # Number of committed branches that were mispredicted. (Count)
system.cpu0.branchPred.mispredicted_0::total       275279                       # Number of committed branches that were mispredicted. (Count)
system.cpu0.branchPred.mispredictDueToPredictor_0::NoBranch            0      0.00%      0.00% # Number of committed branches that were mispredicted by the predictor. (Count)
system.cpu0.branchPred.mispredictDueToPredictor_0::Return            0      0.00%      0.00% # Number of committed branches that were mispredicted by the predictor. (Count)
system.cpu0.branchPred.mispredictDueToPredictor_0::CallDirect            0      0.00%      0.00% # Number of committed branches that were mispredicted by the predictor. (Count)
system.cpu0.branchPred.mispredictDueToPredictor_0::CallIndirect            0      0.00%      0.00% # Number of committed branches that were mispredicted by the predictor. (Count)
system.cpu0.branchPred.mispredictDueToPredictor_0::DirectCond       273690    100.00%    100.00% # Number of committed branches that were mispredicted by the predictor. (Count)
system.cpu0.branchPred.mispredictDueToPredictor_0::DirectUncond            0      0.00%    100.00% # Number of committed branches that were mispredicted by the predictor. (Count)
system.cpu0.branchPred.mispredictDueToPredictor_0::IndirectCond            0      0.00%    100.00% # Number of committed branches that were mispredicted by the predictor. (Count)
system.cpu0.branchPred.mispredictDueToPredictor_0::IndirectUncond            0      0.00%    100.00% # Number of committed branches that were mispredicted by the predictor. (Count)
system.cpu0.branchPred.mispredictDueToPredictor_0::total       273690                       # Number of committed branches that were mispredicted by the predictor. (Count)
system.cpu0.branchPred.mispredictDueToBTBMiss_0::NoBranch            0      0.00%      0.00% # Number of committed branches that were mispredicted because of a BTB miss. (Count)
system.cpu0.branchPred.mispredictDueToBTBMiss_0::Return            0      0.00%      0.00% # Number of committed branches that were mispredicted because of a BTB miss. (Count)
system.cpu0.branchPred.mispredictDueToBTBMiss_0::CallDirect          507     31.91%     31.91% # Number of committed branches that were mispredicted because of a BTB miss. (Count)
system.cpu0.branchPred.mispredictDueToBTBMiss_0::CallIndirect          128      8.06%     39.96% # Number of committed branches that were mispredicted because of a BTB miss. (Count)
system.cpu0.branchPred.mispredictDueToBTBMiss_0::DirectCond          644     40.53%     80.49% # Number of committed branches that were mispredicted because of a BTB miss. (Count)
system.cpu0.branchPred.mispredictDueToBTBMiss_0::DirectUncond          182     11.45%     91.94% # Number of committed branches that were mispredicted because of a BTB miss. (Count)
system.cpu0.branchPred.mispredictDueToBTBMiss_0::IndirectCond            0      0.00%     91.94% # Number of committed branches that were mispredicted because of a BTB miss. (Count)
system.cpu0.branchPred.mispredictDueToBTBMiss_0::IndirectUncond          128      8.06%    100.00% # Number of committed branches that were mispredicted because of a BTB miss. (Count)
system.cpu0.branchPred.mispredictDueToBTBMiss_0::total         1589                       # Number of committed branches that were mispredicted because of a BTB miss. (Count)
system.cpu0.branchPred.targetProvider_0::NoTarget     13022959     26.84%     26.84% # The component providing the target for taken branches (Count)
system.cpu0.branchPred.targetProvider_0::BTB     24837992     51.19%     78.02% # The component providing the target for taken branches (Count)
system.cpu0.branchPred.targetProvider_0::RAS     10663843     21.98%    100.00% # The component providing the target for taken branches (Count)
system.cpu0.branchPred.targetProvider_0::Indirect          474      0.00%    100.00% # The component providing the target for taken branches (Count)
system.cpu0.branchPred.targetProvider_0::total     48525268                       # The component providing the target for taken branches (Count)
system.cpu0.branchPred.targetWrong_0::NoBranch       142336     51.58%     51.58% # Number of branches where the target was incorrect or not available at prediction time. (Count)
system.cpu0.branchPred.targetWrong_0::Return       133570     48.41%     99.99% # Number of branches where the target was incorrect or not available at prediction time. (Count)
system.cpu0.branchPred.targetWrong_0::CallDirect            8      0.00%     99.99% # Number of branches where the target was incorrect or not available at prediction time. (Count)
system.cpu0.branchPred.targetWrong_0::CallIndirect           22      0.01%    100.00% # Number of branches where the target was incorrect or not available at prediction time. (Count)
system.cpu0.branchPred.targetWrong_0::DirectCond            0      0.00%    100.00% # Number of branches where the target was incorrect or not available at prediction time. (Count)
system.cpu0.branchPred.targetWrong_0::DirectUncond            0      0.00%    100.00% # Number of branches where the target was incorrect or not available at prediction time. (Count)
system.cpu0.branchPred.targetWrong_0::IndirectCond            0      0.00%    100.00% # Number of branches where the target was incorrect or not available at prediction time. (Count)
system.cpu0.branchPred.targetWrong_0::IndirectUncond            0      0.00%    100.00% # Number of branches where the target was incorrect or not available at prediction time. (Count)
system.cpu0.branchPred.targetWrong_0::total       275936                       # Number of branches where the target was incorrect or not available at prediction time. (Count)
system.cpu0.branchPred.condPredicted         23599959                       # Number of conditional branches predicted (Count)
system.cpu0.branchPred.condPredictedTaken     10580954                       # Number of conditional branches predicted as taken (Count)
system.cpu0.branchPred.condIncorrect           275949                       # Number of conditional branches incorrect (Count)
system.cpu0.branchPred.predTakenBTBMiss          1319                       # Number of branches predicted taken but missed in BTB (Count)
system.cpu0.branchPred.BTBLookups            48525268                       # Number of BTB lookups (Count)
system.cpu0.branchPred.BTBUpdates              142069                       # Number of BTB updates (Count)
system.cpu0.branchPred.BTBHits               27354166                       # Number of BTB hits (Count)
system.cpu0.branchPred.BTBHitRatio           0.563710                       # BTB Hit Ratio (Ratio)
system.cpu0.branchPred.BTBMispredicted           1808                       # Number BTB mispredictions. No target found or target wrong (Count)
system.cpu0.branchPred.indirectLookups           1550                       # Number of indirect predictor lookups. (Count)
system.cpu0.branchPred.indirectHits               474                       # Number of indirect target hits. (Count)
system.cpu0.branchPred.indirectMisses            1076                       # Number of indirect misses. (Count)
system.cpu0.branchPred.indirectMispredicted            0                       # Number of mispredicted indirect branches. (Count)
system.cpu0.branchPred.btb.lookups::NoBranch            0      0.00%      0.00% # Number of BTB lookups (Count)
system.cpu0.branchPred.btb.lookups::Return     10663843     21.98%     21.98% # Number of BTB lookups (Count)
system.cpu0.branchPred.btb.lookups::CallDirect     11661662     24.03%     46.01% # Number of BTB lookups (Count)
system.cpu0.branchPred.btb.lookups::CallIndirect          509      0.00%     46.01% # Number of BTB lookups (Count)
system.cpu0.branchPred.btb.lookups::DirectCond     23599959     48.63%     94.64% # Number of BTB lookups (Count)
system.cpu0.branchPred.btb.lookups::DirectUncond      2598254      5.35%    100.00% # Number of BTB lookups (Count)
system.cpu0.branchPred.btb.lookups::IndirectCond            0      0.00%    100.00% # Number of BTB lookups (Count)
system.cpu0.branchPred.btb.lookups::IndirectUncond         1041      0.00%    100.00% # Number of BTB lookups (Count)
system.cpu0.branchPred.btb.lookups::total     48525268                       # Number of BTB lookups (Count)
system.cpu0.branchPred.btb.misses::NoBranch            0      0.00%      0.00% # Number of BTB misses (Count)
system.cpu0.branchPred.btb.misses::Return     10663843     50.37%     50.37% # Number of BTB misses (Count)
system.cpu0.branchPred.btb.misses::CallDirect         1002      0.00%     50.37% # Number of BTB misses (Count)
system.cpu0.branchPred.btb.misses::CallIndirect          509      0.00%     50.38% # Number of BTB misses (Count)
system.cpu0.branchPred.btb.misses::DirectCond     10504225     49.62%     99.99% # Number of BTB misses (Count)
system.cpu0.branchPred.btb.misses::DirectUncond          482      0.00%    100.00% # Number of BTB misses (Count)
system.cpu0.branchPred.btb.misses::IndirectCond            0      0.00%    100.00% # Number of BTB misses (Count)
system.cpu0.branchPred.btb.misses::IndirectUncond         1041      0.00%    100.00% # Number of BTB misses (Count)
system.cpu0.branchPred.btb.misses::total     21171102                       # Number of BTB misses (Count)
system.cpu0.branchPred.btb.updates::NoBranch            0      0.00%      0.00% # Number of BTB updates (Count)
system.cpu0.branchPred.btb.updates::Return            0      0.00%      0.00% # Number of BTB updates (Count)
system.cpu0.branchPred.btb.updates::CallDirect          730      0.51%      0.51% # Number of BTB updates (Count)
system.cpu0.branchPred.btb.updates::CallIndirect            0      0.00%      0.51% # Number of BTB updates (Count)
system.cpu0.branchPred.btb.updates::DirectCond       141004     99.25%     99.76% # Number of BTB updates (Count)
system.cpu0.branchPred.btb.updates::DirectUncond          335      0.24%    100.00% # Number of BTB updates (Count)
system.cpu0.branchPred.btb.updates::IndirectCond            0      0.00%    100.00% # Number of BTB updates (Count)
system.cpu0.branchPred.btb.updates::IndirectUncond            0      0.00%    100.00% # Number of BTB updates (Count)
system.cpu0.branchPred.btb.updates::total       142069                       # Number of BTB updates (Count)
system.cpu0.branchPred.btb.mispredict::NoBranch            0      0.00%      0.00% # Number of BTB mispredictions. No target found or target wrong. (Count)
system.cpu0.branchPred.btb.mispredict::Return            0      0.00%      0.00% # Number of BTB mispredictions. No target found or target wrong. (Count)
system.cpu0.branchPred.btb.mispredict::CallDirect          730      0.51%      0.51% # Number of BTB mispredictions. No target found or target wrong. (Count)
system.cpu0.branchPred.btb.mispredict::CallIndirect            0      0.00%      0.51% # Number of BTB mispredictions. No target found or target wrong. (Count)
system.cpu0.branchPred.btb.mispredict::DirectCond       141004     99.25%     99.76% # Number of BTB mispredictions. No target found or target wrong. (Count)
system.cpu0.branchPred.btb.mispredict::DirectUncond          335      0.24%    100.00% # Number of BTB mispredictions. No target found or target wrong. (Count)
system.cpu0.branchPred.btb.mispredict::IndirectCond            0      0.00%    100.00% # Number of BTB mispredictions. No target found or target wrong. (Count)
system.cpu0.branchPred.btb.mispredict::IndirectUncond            0      0.00%    100.00% # Number of BTB mispredictions. No target found or target wrong. (Count)
system.cpu0.branchPred.btb.mispredict::total       142069                       # Number of BTB mispredictions. No target found or target wrong. (Count)
system.cpu0.branchPred.btb.power_state.pwrStateResidencyTicks::UNDEFINED 313441006500                       # Cumulative time (in ticks) in various power states (Tick)
system.cpu0.branchPred.indirectBranchPred.lookups         1550                       # Number of lookups (Count)
system.cpu0.branchPred.indirectBranchPred.hits          474                       # Number of hits of a tag (Count)
system.cpu0.branchPred.indirectBranchPred.misses         1076                       # Number of misses (Count)
system.cpu0.branchPred.indirectBranchPred.targetRecords          296                       # Number of targets that where recorded/installed in the cache (Count)
system.cpu0.branchPred.indirectBranchPred.indirectRecords         1846                       # Number of indirect branches/calls recorded in the indirect hist (Count)
system.cpu0.branchPred.indirectBranchPred.speculativeOverflows            1                       # Number of times more than the allowed capacity for speculative branches/calls where in flight and destroy the path history (Count)
system.cpu0.branchPred.ras.pushes            14323964                       # Number of times a PC was pushed onto the RAS (Count)
system.cpu0.branchPred.ras.pops              14323959                       # Number of times a PC was poped from the RAS (Count)
system.cpu0.branchPred.ras.squashes           6321909                       # Number of times the stack operation was squashed due to wrong speculation. (Count)
system.cpu0.branchPred.ras.used               8002050                       # Number of times the RAS is the provider (Count)
system.cpu0.branchPred.ras.correct            8002050                       # Number of times the RAS is the provider and the prediction is correct (Count)
system.cpu0.branchPred.ras.incorrect                0                       # Number of times the RAS is the provider and the prediction is wrong (Count)
system.cpu0.commit.commitSquashedInsts      118050210                       # The number of squashed insts skipped by commit (Count)
system.cpu0.commit.commitNonSpecStalls        6000619                       # The number of times commit has been forced to stall to communicate backwards (Count)
system.cpu0.commit.branchMispredicts           274931                       # The number of times a branch was mispredicted (Count)
system.cpu0.commit.numCommittedDist::samples    223269548                       # Number of insts commited each cycle (Count)
system.cpu0.commit.numCommittedDist::mean     1.538245                       # Number of insts commited each cycle (Count)
system.cpu0.commit.numCommittedDist::stdev     2.642259                       # Number of insts commited each cycle (Count)
system.cpu0.commit.numCommittedDist::underflows            0      0.00%      0.00% # Number of insts commited each cycle (Count)
system.cpu0.commit.numCommittedDist::0      138988539     62.25%     62.25% # Number of insts commited each cycle (Count)
system.cpu0.commit.numCommittedDist::1       27623665     12.37%     74.62% # Number of insts commited each cycle (Count)
system.cpu0.commit.numCommittedDist::2        5351649      2.40%     77.02% # Number of insts commited each cycle (Count)
system.cpu0.commit.numCommittedDist::3       13602415      6.09%     83.11% # Number of insts commited each cycle (Count)
system.cpu0.commit.numCommittedDist::4        3124181      1.40%     84.51% # Number of insts commited each cycle (Count)
system.cpu0.commit.numCommittedDist::5        2365547      1.06%     85.57% # Number of insts commited each cycle (Count)
system.cpu0.commit.numCommittedDist::6        5338209      2.39%     87.96% # Number of insts commited each cycle (Count)
system.cpu0.commit.numCommittedDist::7        7047461      3.16%     91.12% # Number of insts commited each cycle (Count)
system.cpu0.commit.numCommittedDist::8       19827882      8.88%    100.00% # Number of insts commited each cycle (Count)
system.cpu0.commit.numCommittedDist::overflows            0      0.00%    100.00% # Number of insts commited each cycle (Count)
system.cpu0.commit.numCommittedDist::min_value            0                       # Number of insts commited each cycle (Count)
system.cpu0.commit.numCommittedDist::max_value            8                       # Number of insts commited each cycle (Count)
system.cpu0.commit.numCommittedDist::total    223269548                       # Number of insts commited each cycle (Count)
system.cpu0.commit.amos                             0                       # Number of atomic instructions committed (Count)
system.cpu0.commit.membars                    4000412                       # Number of memory barriers committed (Count)
system.cpu0.commit.functionCalls              8002055                       # Number of function calls committed. (Count)
system.cpu0.commit.committedInstType_0::No_OpClass      8002546      2.33%      2.33% # Class of committed instruction (Count)
system.cpu0.commit.committedInstType_0::IntAlu    219845663     64.01%     66.34% # Class of committed instruction (Count)
system.cpu0.commit.committedInstType_0::IntMult      2000168      0.58%     66.92% # Class of committed instruction (Count)
system.cpu0.commit.committedInstType_0::IntDiv           77      0.00%     66.92% # Class of committed instruction (Count)
system.cpu0.commit.committedInstType_0::FloatAdd      2001690      0.58%     67.51% # Class of committed instruction (Count)
system.cpu0.commit.committedInstType_0::FloatCmp            0      0.00%     67.51% # Class of committed instruction (Count)
system.cpu0.commit.committedInstType_0::FloatCvt            0      0.00%     67.51% # Class of committed instruction (Count)
system.cpu0.commit.committedInstType_0::FloatMult            0      0.00%     67.51% # Class of committed instruction (Count)
system.cpu0.commit.committedInstType_0::FloatMultAcc            0      0.00%     67.51% # Class of committed instruction (Count)
system.cpu0.commit.committedInstType_0::FloatDiv            0      0.00%     67.51% # Class of committed instruction (Count)
system.cpu0.commit.committedInstType_0::FloatMisc            0      0.00%     67.51% # Class of committed instruction (Count)
system.cpu0.commit.committedInstType_0::FloatSqrt            0      0.00%     67.51% # Class of committed instruction (Count)
system.cpu0.commit.committedInstType_0::SimdAdd           26      0.00%     67.51% # Class of committed instruction (Count)
system.cpu0.commit.committedInstType_0::SimdAddAcc            0      0.00%     67.51% # Class of committed instruction (Count)
system.cpu0.commit.committedInstType_0::SimdAlu         1006      0.00%     67.51% # Class of committed instruction (Count)
system.cpu0.commit.committedInstType_0::SimdCmp            6      0.00%     67.51% # Class of committed instruction (Count)
system.cpu0.commit.committedInstType_0::SimdCvt          464      0.00%     67.51% # Class of committed instruction (Count)
system.cpu0.commit.committedInstType_0::SimdMisc      2002390      0.58%     68.09% # Class of committed instruction (Count)
system.cpu0.commit.committedInstType_0::SimdMult            0      0.00%     68.09% # Class of committed instruction (Count)
system.cpu0.commit.committedInstType_0::SimdMultAcc            0      0.00%     68.09% # Class of committed instruction (Count)
system.cpu0.commit.committedInstType_0::SimdMatMultAcc            0      0.00%     68.09% # Class of committed instruction (Count)
system.cpu0.commit.committedInstType_0::SimdShift            0      0.00%     68.09% # Class of committed instruction (Count)
system.cpu0.commit.committedInstType_0::SimdShiftAcc            0      0.00%     68.09% # Class of committed instruction (Count)
system.cpu0.commit.committedInstType_0::SimdDiv            0      0.00%     68.09% # Class of committed instruction (Count)
system.cpu0.commit.committedInstType_0::SimdSqrt            0      0.00%     68.09% # Class of committed instruction (Count)
system.cpu0.commit.committedInstType_0::SimdFloatAdd           19      0.00%     68.09% # Class of committed instruction (Count)
system.cpu0.commit.committedInstType_0::SimdFloatAlu            0      0.00%     68.09% # Class of committed instruction (Count)
system.cpu0.commit.committedInstType_0::SimdFloatCmp            0      0.00%     68.09% # Class of committed instruction (Count)
system.cpu0.commit.committedInstType_0::SimdFloatCvt            9      0.00%     68.09% # Class of committed instruction (Count)
system.cpu0.commit.committedInstType_0::SimdFloatDiv            2      0.00%     68.09% # Class of committed instruction (Count)
system.cpu0.commit.committedInstType_0::SimdFloatMisc            0      0.00%     68.09% # Class of committed instruction (Count)
system.cpu0.commit.committedInstType_0::SimdFloatMult           12      0.00%     68.09% # Class of committed instruction (Count)
system.cpu0.commit.committedInstType_0::SimdFloatMultAcc            0      0.00%     68.09% # Class of committed instruction (Count)
system.cpu0.commit.committedInstType_0::SimdFloatMatMultAcc            0      0.00%     68.09% # Class of committed instruction (Count)
system.cpu0.commit.committedInstType_0::SimdFloatSqrt            0      0.00%     68.09% # Class of committed instruction (Count)
system.cpu0.commit.committedInstType_0::SimdReduceAdd            0      0.00%     68.09% # Class of committed instruction (Count)
system.cpu0.commit.committedInstType_0::SimdReduceAlu            0      0.00%     68.09% # Class of committed instruction (Count)
system.cpu0.commit.committedInstType_0::SimdReduceCmp            0      0.00%     68.09% # Class of committed instruction (Count)
system.cpu0.commit.committedInstType_0::SimdFloatReduceAdd            0      0.00%     68.09% # Class of committed instruction (Count)
system.cpu0.commit.committedInstType_0::SimdFloatReduceCmp            0      0.00%     68.09% # Class of committed instruction (Count)
system.cpu0.commit.committedInstType_0::SimdAes            0      0.00%     68.09% # Class of committed instruction (Count)
system.cpu0.commit.committedInstType_0::SimdAesMix            0      0.00%     68.09% # Class of committed instruction (Count)
system.cpu0.commit.committedInstType_0::SimdSha1Hash            0      0.00%     68.09% # Class of committed instruction (Count)
system.cpu0.commit.committedInstType_0::SimdSha1Hash2            0      0.00%     68.09% # Class of committed instruction (Count)
system.cpu0.commit.committedInstType_0::SimdSha256Hash            0      0.00%     68.09% # Class of committed instruction (Count)
system.cpu0.commit.committedInstType_0::SimdSha256Hash2            0      0.00%     68.09% # Class of committed instruction (Count)
system.cpu0.commit.committedInstType_0::SimdShaSigma2            0      0.00%     68.09% # Class of committed instruction (Count)
system.cpu0.commit.committedInstType_0::SimdShaSigma3            0      0.00%     68.09% # Class of committed instruction (Count)
system.cpu0.commit.committedInstType_0::SimdPredAlu            0      0.00%     68.09% # Class of committed instruction (Count)
system.cpu0.commit.committedInstType_0::Matrix            0      0.00%     68.09% # Class of committed instruction (Count)
system.cpu0.commit.committedInstType_0::MatrixMov            0      0.00%     68.09% # Class of committed instruction (Count)
system.cpu0.commit.committedInstType_0::MatrixOP            0      0.00%     68.09% # Class of committed instruction (Count)
system.cpu0.commit.committedInstType_0::MemRead     69322645     20.18%     88.28% # Class of committed instruction (Count)
system.cpu0.commit.committedInstType_0::MemWrite     37263276     10.85%     99.13% # Class of committed instruction (Count)
system.cpu0.commit.committedInstType_0::FloatMemRead       501010      0.15%     99.27% # Class of committed instruction (Count)
system.cpu0.commit.committedInstType_0::FloatMemWrite      2502195      0.73%    100.00% # Class of committed instruction (Count)
system.cpu0.commit.committedInstType_0::IprAccess            0      0.00%    100.00% # Class of committed instruction (Count)
system.cpu0.commit.committedInstType_0::InstPrefetch            0      0.00%    100.00% # Class of committed instruction (Count)
system.cpu0.commit.committedInstType_0::SimdUnitStrideLoad            0      0.00%    100.00% # Class of committed instruction (Count)
system.cpu0.commit.committedInstType_0::SimdUnitStrideStore            0      0.00%    100.00% # Class of committed instruction (Count)
system.cpu0.commit.committedInstType_0::SimdUnitStrideMaskLoad            0      0.00%    100.00% # Class of committed instruction (Count)
system.cpu0.commit.committedInstType_0::SimdUnitStrideMaskStore            0      0.00%    100.00% # Class of committed instruction (Count)
system.cpu0.commit.committedInstType_0::SimdStridedLoad            0      0.00%    100.00% # Class of committed instruction (Count)
system.cpu0.commit.committedInstType_0::SimdStridedStore            0      0.00%    100.00% # Class of committed instruction (Count)
system.cpu0.commit.committedInstType_0::SimdIndexedLoad            0      0.00%    100.00% # Class of committed instruction (Count)
system.cpu0.commit.committedInstType_0::SimdIndexedStore            0      0.00%    100.00% # Class of committed instruction (Count)
system.cpu0.commit.committedInstType_0::SimdWholeRegisterLoad            0      0.00%    100.00% # Class of committed instruction (Count)
system.cpu0.commit.committedInstType_0::SimdWholeRegisterStore            0      0.00%    100.00% # Class of committed instruction (Count)
system.cpu0.commit.committedInstType_0::SimdUnitStrideFaultOnlyFirstLoad            0      0.00%    100.00% # Class of committed instruction (Count)
system.cpu0.commit.committedInstType_0::SimdUnitStrideSegmentedLoad            0      0.00%    100.00% # Class of committed instruction (Count)
system.cpu0.commit.committedInstType_0::SimdUnitStrideSegmentedStore            0      0.00%    100.00% # Class of committed instruction (Count)
system.cpu0.commit.committedInstType_0::SimdUnitStrideSegmentedFaultOnlyFirstLoad            0      0.00%    100.00% # Class of committed instruction (Count)
system.cpu0.commit.committedInstType_0::SimdStrideSegmentedLoad            0      0.00%    100.00% # Class of committed instruction (Count)
system.cpu0.commit.committedInstType_0::SimdStrideSegmentedStore            0      0.00%    100.00% # Class of committed instruction (Count)
system.cpu0.commit.committedInstType_0::SimdExt            0      0.00%    100.00% # Class of committed instruction (Count)
system.cpu0.commit.committedInstType_0::SimdFloatExt            0      0.00%    100.00% # Class of committed instruction (Count)
system.cpu0.commit.committedInstType_0::SimdConfig            0      0.00%    100.00% # Class of committed instruction (Count)
system.cpu0.commit.committedInstType_0::total    343443204                       # Class of committed instruction (Count)
system.cpu0.commit.commitEligibleSamples     19827882                       # number cycles where commit BW limit reached (Cycle)
system.cpu0.commitStats0.numInsts           199197181                       # Number of instructions committed (thread level) (Count)
system.cpu0.commitStats0.numOps             343443204                       # Number of ops (including micro ops) committed (thread level) (Count)
system.cpu0.commitStats0.numInstsNotNOP     199197181                       # Number of instructions committed excluding NOPs or prefetches (Count)
system.cpu0.commitStats0.numOpsNotNOP       343443204                       # Number of Ops (including micro ops) Simulated (Count)
system.cpu0.commitStats0.cpi                 1.198750                       # CPI: cycles per instruction (thread level) ((Cycle/Count))
system.cpu0.commitStats0.ipc                 0.834203                       # IPC: instructions per cycle (thread level) ((Count/Cycle))
system.cpu0.commitStats0.numMemRefs         109589126                       # Number of memory references committed (Count)
system.cpu0.commitStats0.numFpInsts           8009880                       # Number of float instructions (Count)
system.cpu0.commitStats0.numIntInsts        328134011                       # Number of integer instructions (Count)
system.cpu0.commitStats0.numLoadInsts        69823655                       # Number of load instructions (Count)
system.cpu0.commitStats0.numStoreInsts       39765471                       # Number of store instructions (Count)
system.cpu0.commitStats0.numVecInsts                0                       # Number of vector instructions (Count)
system.cpu0.commitStats0.committedInstType::No_OpClass      8002546      2.33%      2.33% # Class of committed instruction. (Count)
system.cpu0.commitStats0.committedInstType::IntAlu    219845663     64.01%     66.34% # Class of committed instruction. (Count)
system.cpu0.commitStats0.committedInstType::IntMult      2000168      0.58%     66.92% # Class of committed instruction. (Count)
system.cpu0.commitStats0.committedInstType::IntDiv           77      0.00%     66.92% # Class of committed instruction. (Count)
system.cpu0.commitStats0.committedInstType::FloatAdd      2001690      0.58%     67.51% # Class of committed instruction. (Count)
system.cpu0.commitStats0.committedInstType::FloatCmp            0      0.00%     67.51% # Class of committed instruction. (Count)
system.cpu0.commitStats0.committedInstType::FloatCvt            0      0.00%     67.51% # Class of committed instruction. (Count)
system.cpu0.commitStats0.committedInstType::FloatMult            0      0.00%     67.51% # Class of committed instruction. (Count)
system.cpu0.commitStats0.committedInstType::FloatMultAcc            0      0.00%     67.51% # Class of committed instruction. (Count)
system.cpu0.commitStats0.committedInstType::FloatDiv            0      0.00%     67.51% # Class of committed instruction. (Count)
system.cpu0.commitStats0.committedInstType::FloatMisc            0      0.00%     67.51% # Class of committed instruction. (Count)
system.cpu0.commitStats0.committedInstType::FloatSqrt            0      0.00%     67.51% # Class of committed instruction. (Count)
system.cpu0.commitStats0.committedInstType::SimdAdd           26      0.00%     67.51% # Class of committed instruction. (Count)
system.cpu0.commitStats0.committedInstType::SimdAddAcc            0      0.00%     67.51% # Class of committed instruction. (Count)
system.cpu0.commitStats0.committedInstType::SimdAlu         1006      0.00%     67.51% # Class of committed instruction. (Count)
system.cpu0.commitStats0.committedInstType::SimdCmp            6      0.00%     67.51% # Class of committed instruction. (Count)
system.cpu0.commitStats0.committedInstType::SimdCvt          464      0.00%     67.51% # Class of committed instruction. (Count)
system.cpu0.commitStats0.committedInstType::SimdMisc      2002390      0.58%     68.09% # Class of committed instruction. (Count)
system.cpu0.commitStats0.committedInstType::SimdMult            0      0.00%     68.09% # Class of committed instruction. (Count)
system.cpu0.commitStats0.committedInstType::SimdMultAcc            0      0.00%     68.09% # Class of committed instruction. (Count)
system.cpu0.commitStats0.committedInstType::SimdMatMultAcc            0      0.00%     68.09% # Class of committed instruction. (Count)
system.cpu0.commitStats0.committedInstType::SimdShift            0      0.00%     68.09% # Class of committed instruction. (Count)
system.cpu0.commitStats0.committedInstType::SimdShiftAcc            0      0.00%     68.09% # Class of committed instruction. (Count)
system.cpu0.commitStats0.committedInstType::SimdDiv            0      0.00%     68.09% # Class of committed instruction. (Count)
system.cpu0.commitStats0.committedInstType::SimdSqrt            0      0.00%     68.09% # Class of committed instruction. (Count)
system.cpu0.commitStats0.committedInstType::SimdFloatAdd           19      0.00%     68.09% # Class of committed instruction. (Count)
system.cpu0.commitStats0.committedInstType::SimdFloatAlu            0      0.00%     68.09% # Class of committed instruction. (Count)
system.cpu0.commitStats0.committedInstType::SimdFloatCmp            0      0.00%     68.09% # Class of committed instruction. (Count)
system.cpu0.commitStats0.committedInstType::SimdFloatCvt            9      0.00%     68.09% # Class of committed instruction. (Count)
system.cpu0.commitStats0.committedInstType::SimdFloatDiv            2      0.00%     68.09% # Class of committed instruction. (Count)
system.cpu0.commitStats0.committedInstType::SimdFloatMisc            0      0.00%     68.09% # Class of committed instruction. (Count)
system.cpu0.commitStats0.committedInstType::SimdFloatMult           12      0.00%     68.09% # Class of committed instruction. (Count)
system.cpu0.commitStats0.committedInstType::SimdFloatMultAcc            0      0.00%     68.09% # Class of committed instruction. (Count)
system.cpu0.commitStats0.committedInstType::SimdFloatMatMultAcc            0      0.00%     68.09% # Class of committed instruction. (Count)
system.cpu0.commitStats0.committedInstType::SimdFloatSqrt            0      0.00%     68.09% # Class of committed instruction. (Count)
system.cpu0.commitStats0.committedInstType::SimdReduceAdd            0      0.00%     68.09% # Class of committed instruction. (Count)
system.cpu0.commitStats0.committedInstType::SimdReduceAlu            0      0.00%     68.09% # Class of committed instruction. (Count)
system.cpu0.commitStats0.committedInstType::SimdReduceCmp            0      0.00%     68.09% # Class of committed instruction. (Count)
system.cpu0.commitStats0.committedInstType::SimdFloatReduceAdd            0      0.00%     68.09% # Class of committed instruction. (Count)
system.cpu0.commitStats0.committedInstType::SimdFloatReduceCmp            0      0.00%     68.09% # Class of committed instruction. (Count)
system.cpu0.commitStats0.committedInstType::SimdAes            0      0.00%     68.09% # Class of committed instruction. (Count)
system.cpu0.commitStats0.committedInstType::SimdAesMix            0      0.00%     68.09% # Class of committed instruction. (Count)
system.cpu0.commitStats0.committedInstType::SimdSha1Hash            0      0.00%     68.09% # Class of committed instruction. (Count)
system.cpu0.commitStats0.committedInstType::SimdSha1Hash2            0      0.00%     68.09% # Class of committed instruction. (Count)
system.cpu0.commitStats0.committedInstType::SimdSha256Hash            0      0.00%     68.09% # Class of committed instruction. (Count)
system.cpu0.commitStats0.committedInstType::SimdSha256Hash2            0      0.00%     68.09% # Class of committed instruction. (Count)
system.cpu0.commitStats0.committedInstType::SimdShaSigma2            0      0.00%     68.09% # Class of committed instruction. (Count)
system.cpu0.commitStats0.committedInstType::SimdShaSigma3            0      0.00%     68.09% # Class of committed instruction. (Count)
system.cpu0.commitStats0.committedInstType::SimdPredAlu            0      0.00%     68.09% # Class of committed instruction. (Count)
system.cpu0.commitStats0.committedInstType::Matrix            0      0.00%     68.09% # Class of committed instruction. (Count)
system.cpu0.commitStats0.committedInstType::MatrixMov            0      0.00%     68.09% # Class of committed instruction. (Count)
system.cpu0.commitStats0.committedInstType::MatrixOP            0      0.00%     68.09% # Class of committed instruction. (Count)
system.cpu0.commitStats0.committedInstType::MemRead     69322645     20.18%     88.28% # Class of committed instruction. (Count)
system.cpu0.commitStats0.committedInstType::MemWrite     37263276     10.85%     99.13% # Class of committed instruction. (Count)
system.cpu0.commitStats0.committedInstType::FloatMemRead       501010      0.15%     99.27% # Class of committed instruction. (Count)
system.cpu0.commitStats0.committedInstType::FloatMemWrite      2502195      0.73%    100.00% # Class of committed instruction. (Count)
system.cpu0.commitStats0.committedInstType::IprAccess            0      0.00%    100.00% # Class of committed instruction. (Count)
system.cpu0.commitStats0.committedInstType::InstPrefetch            0      0.00%    100.00% # Class of committed instruction. (Count)
system.cpu0.commitStats0.committedInstType::SimdUnitStrideLoad            0      0.00%    100.00% # Class of committed instruction. (Count)
system.cpu0.commitStats0.committedInstType::SimdUnitStrideStore            0      0.00%    100.00% # Class of committed instruction. (Count)
system.cpu0.commitStats0.committedInstType::SimdUnitStrideMaskLoad            0      0.00%    100.00% # Class of committed instruction. (Count)
system.cpu0.commitStats0.committedInstType::SimdUnitStrideMaskStore            0      0.00%    100.00% # Class of committed instruction. (Count)
system.cpu0.commitStats0.committedInstType::SimdStridedLoad            0      0.00%    100.00% # Class of committed instruction. (Count)
system.cpu0.commitStats0.committedInstType::SimdStridedStore            0      0.00%    100.00% # Class of committed instruction. (Count)
system.cpu0.commitStats0.committedInstType::SimdIndexedLoad            0      0.00%    100.00% # Class of committed instruction. (Count)
system.cpu0.commitStats0.committedInstType::SimdIndexedStore            0      0.00%    100.00% # Class of committed instruction. (Count)
system.cpu0.commitStats0.committedInstType::SimdWholeRegisterLoad            0      0.00%    100.00% # Class of committed instruction. (Count)
system.cpu0.commitStats0.committedInstType::SimdWholeRegisterStore            0      0.00%    100.00% # Class of committed instruction. (Count)
system.cpu0.commitStats0.committedInstType::SimdUnitStrideFaultOnlyFirstLoad            0      0.00%    100.00% # Class of committed instruction. (Count)
system.cpu0.commitStats0.committedInstType::SimdUnitStrideSegmentedLoad            0      0.00%    100.00% # Class of committed instruction. (Count)
system.cpu0.commitStats0.committedInstType::SimdUnitStrideSegmentedStore            0      0.00%    100.00% # Class of committed instruction. (Count)
system.cpu0.commitStats0.committedInstType::SimdUnitStrideSegmentedFaultOnlyFirstLoad            0      0.00%    100.00% # Class of committed instruction. (Count)
[...]
system.membus.snoopFanout::samples            1461383                       # Request fanout histogram (Count)
system.membus.snoopFanout::mean                     0                       # Request fanout histogram (Count)
system.membus.snoopFanout::stdev                    0                       # Request fanout histogram (Count)
system.membus.snoopFanout::underflows               0      0.00%      0.00% # Request fanout histogram (Count)
system.membus.snoopFanout::0                  1461383    100.00%    100.00% # Request fanout histogram (Count)
system.membus.snoopFanout::1                        0      0.00%    100.00% # Request fanout histogram (Count)
system.membus.snoopFanout::overflows                0      0.00%    100.00% # Request fanout histogram (Count)
system.membus.snoopFanout::min_value                0                       # Request fanout histogram (Count)
system.membus.snoopFanout::max_value                0                       # Request fanout histogram (Count)
system.membus.snoopFanout::total              1461383                       # Request fanout histogram (Count)
system.membus.power_state.pwrStateResidencyTicks::UNDEFINED 313441006500                       # Cumulative time (in ticks) in various power states (Tick)
system.membus.reqLayer16.occupancy         7033133000                       # Layer occupancy (ticks) (Tick)
system.membus.reqLayer16.utilization              0.0                       # Layer utilization (Ratio)
system.membus.respLayer1.occupancy         7757677250                       # Layer occupancy (ticks) (Tick)
system.membus.respLayer1.utilization              0.0                       # Layer utilization (Ratio)
system.membus.snoop_filter.totRequests        2898487                       # Total number of requests made to the snoop filter. (Count)
system.membus.snoop_filter.hitSingleRequests      1444141                       # Number of requests hitting in the snoop filter with a single holder of the requested data. (Count)
system.membus.snoop_filter.hitMultiRequests            0                       # Number of requests hitting in the snoop filter with multiple (>1) holders of the requested data. (Count)
system.membus.snoop_filter.totSnoops                0                       # Total number of snoops made to the snoop filter. (Count)
system.membus.snoop_filter.hitSingleSnoops            0                       # Number of snoops hitting in the snoop filter with a single holder of the requested data. (Count)
system.membus.snoop_filter.hitMultiSnoops            0                       # Number of snoops hitting in the snoop filter with multiple (>1) holders of the requested data. (Count)
system.tol2bus.transDist::ReadResp             893156                       # Transaction distribution (Count)
system.tol2bus.transDist::ReadRespWithInvalidate            1                       # Transaction distribution (Count)
system.tol2bus.transDist::WritebackDirty      2384049                       # Transaction distribution (Count)
system.tol2bus.transDist::WritebackClean         3351                       # Transaction distribution (Count)
system.tol2bus.transDist::CleanEvict          1083596                       # Transaction distribution (Count)
system.tol2bus.transDist::UpgradeReq              954                       # Transaction distribution (Count)
system.tol2bus.transDist::UpgradeResp             954                       # Transaction distribution (Count)
system.tol2bus.transDist::ReadExReq           1093535                       # Transaction distribution (Count)
system.tol2bus.transDist::ReadExResp          1093535                       # Transaction distribution (Count)
system.tol2bus.transDist::ReadCleanReq           5138                       # Transaction distribution (Count)
system.tol2bus.transDist::ReadSharedReq        888020                       # Transaction distribution (Count)
system.tol2bus.pktCount_system.cpu0.icache.mem_side_port::system.l2.cpu_side_port         7615                       # Packet count per connected requestor and responder (Count)
system.tol2bus.pktCount_system.cpu0.dcache.mem_side_port::system.l2.cpu_side_port      1310448                       # Packet count per connected requestor and responder (Count)
system.tol2bus.pktCount_system.cpu1.icache.mem_side_port::system.l2.cpu_side_port         1026                       # Packet count per connected requestor and responder (Count)
system.tol2bus.pktCount_system.cpu1.dcache.mem_side_port::system.l2.cpu_side_port       968692                       # Packet count per connected requestor and responder (Count)
system.tol2bus.pktCount_system.cpu2.icache.mem_side_port::system.l2.cpu_side_port          946                       # Packet count per connected requestor and responder (Count)
system.tol2bus.pktCount_system.cpu2.dcache.mem_side_port::system.l2.cpu_side_port       968582                       # Packet count per connected requestor and responder (Count)
system.tol2bus.pktCount_system.cpu3.icache.mem_side_port::system.l2.cpu_side_port          740                       # Packet count per connected requestor and responder (Count)
system.tol2bus.pktCount_system.cpu3.dcache.mem_side_port::system.l2.cpu_side_port       370928                       # Packet count per connected requestor and responder (Count)
system.tol2bus.pktCount_system.cpu4.icache.mem_side_port::system.l2.cpu_side_port          987                       # Packet count per connected requestor and responder (Count)
system.tol2bus.pktCount_system.cpu4.dcache.mem_side_port::system.l2.cpu_side_port       968477                       # Packet count per connected requestor and responder (Count)
system.tol2bus.pktCount_system.cpu5.icache.mem_side_port::system.l2.cpu_side_port          920                       # Packet count per connected requestor and responder (Count)
system.tol2bus.pktCount_system.cpu5.dcache.mem_side_port::system.l2.cpu_side_port       576773                       # Packet count per connected requestor and responder (Count)
system.tol2bus.pktCount_system.cpu6.icache.mem_side_port::system.l2.cpu_side_port          613                       # Packet count per connected requestor and responder (Count)
system.tol2bus.pktCount_system.cpu6.dcache.mem_side_port::system.l2.cpu_side_port       392127                       # Packet count per connected requestor and responder (Count)
system.tol2bus.pktCount_system.cpu7.icache.mem_side_port::system.l2.cpu_side_port          777                       # Packet count per connected requestor and responder (Count)
system.tol2bus.pktCount_system.cpu7.dcache.mem_side_port::system.l2.cpu_side_port       370911                       # Packet count per connected requestor and responder (Count)
system.tol2bus.pktCount::total                5940562                       # Packet count per connected requestor and responder (Count)
system.tol2bus.pktSize_system.cpu0.icache.mem_side_port::system.l2.cpu_side_port       319360                       # Cumulative packet size per connected requestor and responder (Byte)
system.tol2bus.pktSize_system.cpu0.dcache.mem_side_port::system.l2.cpu_side_port     48461312                       # Cumulative packet size per connected requestor and responder (Byte)
system.tol2bus.pktSize_system.cpu1.icache.mem_side_port::system.l2.cpu_side_port        38784                       # Cumulative packet size per connected requestor and responder (Byte)
system.tol2bus.pktSize_system.cpu1.dcache.mem_side_port::system.l2.cpu_side_port     35999680                       # Cumulative packet size per connected requestor and responder (Byte)
system.tol2bus.pktSize_system.cpu2.icache.mem_side_port::system.l2.cpu_side_port        35520                       # Cumulative packet size per connected requestor and responder (Byte)
system.tol2bus.pktSize_system.cpu2.dcache.mem_side_port::system.l2.cpu_side_port     36064384                       # Cumulative packet size per connected requestor and responder (Byte)
system.tol2bus.pktSize_system.cpu3.icache.mem_side_port::system.l2.cpu_side_port        27136                       # Cumulative packet size per connected requestor and responder (Byte)
system.tol2bus.pktSize_system.cpu3.dcache.mem_side_port::system.l2.cpu_side_port     12055104                       # Cumulative packet size per connected requestor and responder (Byte)
system.tol2bus.pktSize_system.cpu4.icache.mem_side_port::system.l2.cpu_side_port        37248                       # Cumulative packet size per connected requestor and responder (Byte)
system.tol2bus.pktSize_system.cpu4.dcache.mem_side_port::system.l2.cpu_side_port     36720448                       # Cumulative packet size per connected requestor and responder (Byte)
system.tol2bus.pktSize_system.cpu5.icache.mem_side_port::system.l2.cpu_side_port        34368                       # Cumulative packet size per connected requestor and responder (Byte)
system.tol2bus.pktSize_system.cpu5.dcache.mem_side_port::system.l2.cpu_side_port     21191424                       # Cumulative packet size per connected requestor and responder (Byte)
system.tol2bus.pktSize_system.cpu6.icache.mem_side_port::system.l2.cpu_side_port        22080                       # Cumulative packet size per connected requestor and responder (Byte)
system.tol2bus.pktSize_system.cpu6.dcache.mem_side_port::system.l2.cpu_side_port     14474304                       # Cumulative packet size per connected requestor and responder (Byte)
system.tol2bus.pktSize_system.cpu7.icache.mem_side_port::system.l2.cpu_side_port        28608                       # Cumulative packet size per connected requestor and responder (Byte)
system.tol2bus.pktSize_system.cpu7.dcache.mem_side_port::system.l2.cpu_side_port     12111424                       # Cumulative packet size per connected requestor and responder (Byte)
system.tol2bus.pktSize::total               217621184                       # Cumulative packet size per connected requestor and responder (Byte)
system.tol2bus.snoops                         1505727                       # Total snoops (Count)
system.tol2bus.snoopTraffic                  62320704                       # Total snoop traffic (Byte)
system.tol2bus.snoopFanout::samples           3483315                       # Request fanout histogram (Count)
system.tol2bus.snoopFanout::mean             0.041894                       # Request fanout histogram (Count)
system.tol2bus.snoopFanout::stdev            0.260739                       # Request fanout histogram (Count)
system.tol2bus.snoopFanout::underflows              0      0.00%      0.00% # Request fanout histogram (Count)
system.tol2bus.snoopFanout::0                 3361482     96.50%     96.50% # Request fanout histogram (Count)
system.tol2bus.snoopFanout::1                  110480      3.17%     99.67% # Request fanout histogram (Count)
system.tol2bus.snoopFanout::2                    4857      0.14%     99.81% # Request fanout histogram (Count)
system.tol2bus.snoopFanout::3                    3620      0.10%     99.92% # Request fanout histogram (Count)
system.tol2bus.snoopFanout::4                     968      0.03%     99.95% # Request fanout histogram (Count)
system.tol2bus.snoopFanout::5                     959      0.03%     99.97% # Request fanout histogram (Count)
system.tol2bus.snoopFanout::6                     485      0.01%     99.99% # Request fanout histogram (Count)
system.tol2bus.snoopFanout::7                     412      0.01%    100.00% # Request fanout histogram (Count)
system.tol2bus.snoopFanout::8                      52      0.00%    100.00% # Request fanout histogram (Count)
system.tol2bus.snoopFanout::9                       0      0.00%    100.00% # Request fanout histogram (Count)
system.tol2bus.snoopFanout::10                      0      0.00%    100.00% # Request fanout histogram (Count)
system.tol2bus.snoopFanout::11                      0      0.00%    100.00% # Request fanout histogram (Count)
system.tol2bus.snoopFanout::12                      0      0.00%    100.00% # Request fanout histogram (Count)
system.tol2bus.snoopFanout::13                      0      0.00%    100.00% # Request fanout histogram (Count)
system.tol2bus.snoopFanout::14                      0      0.00%    100.00% # Request fanout histogram (Count)
system.tol2bus.snoopFanout::15                      0      0.00%    100.00% # Request fanout histogram (Count)
system.tol2bus.snoopFanout::16                      0      0.00%    100.00% # Request fanout histogram (Count)
system.tol2bus.snoopFanout::17                      0      0.00%    100.00% # Request fanout histogram (Count)
system.tol2bus.snoopFanout::18                      0      0.00%    100.00% # Request fanout histogram (Count)
system.tol2bus.snoopFanout::19                      0      0.00%    100.00% # Request fanout histogram (Count)
system.tol2bus.snoopFanout::20                      0      0.00%    100.00% # Request fanout histogram (Count)
system.tol2bus.snoopFanout::21                      0      0.00%    100.00% # Request fanout histogram (Count)
system.tol2bus.snoopFanout::22                      0      0.00%    100.00% # Request fanout histogram (Count)
system.tol2bus.snoopFanout::23                      0      0.00%    100.00% # Request fanout histogram (Count)
system.tol2bus.snoopFanout::24                      0      0.00%    100.00% # Request fanout histogram (Count)
system.tol2bus.snoopFanout::25                      0      0.00%    100.00% # Request fanout histogram (Count)
system.tol2bus.snoopFanout::26                      0      0.00%    100.00% # Request fanout histogram (Count)
system.tol2bus.snoopFanout::27                      0      0.00%    100.00% # Request fanout histogram (Count)
system.tol2bus.snoopFanout::28                      0      0.00%    100.00% # Request fanout histogram (Count)
system.tol2bus.snoopFanout::29                      0      0.00%    100.00% # Request fanout histogram (Count)
system.tol2bus.snoopFanout::30                      0      0.00%    100.00% # Request fanout histogram (Count)
system.tol2bus.snoopFanout::31                      0      0.00%    100.00% # Request fanout histogram (Count)
system.tol2bus.snoopFanout::32                      0      0.00%    100.00% # Request fanout histogram (Count)
system.tol2bus.snoopFanout::overflows               0      0.00%    100.00% # Request fanout histogram (Count)
system.tol2bus.snoopFanout::min_value               0                       # Request fanout histogram (Count)
system.tol2bus.snoopFanout::max_value               8                       # Request fanout histogram (Count)
system.tol2bus.snoopFanout::total             3483315                       # Request fanout histogram (Count)
system.tol2bus.power_state.pwrStateResidencyTicks::UNDEFINED 313441006500                       # Cumulative time (in ticks) in various power states (Tick)
system.tol2bus.reqLayer0.occupancy         3404281486                       # Layer occupancy (ticks) (Tick)
system.tol2bus.reqLayer0.utilization              0.0                       # Layer utilization (Ratio)
system.tol2bus.respLayer0.occupancy           3937491                       # Layer occupancy (ticks) (Tick)
system.tol2bus.respLayer0.utilization             0.0                       # Layer utilization (Ratio)
system.tol2bus.respLayer1.occupancy         657106484                       # Layer occupancy (ticks) (Tick)
system.tol2bus.respLayer1.utilization             0.0                       # Layer utilization (Ratio)
system.tol2bus.respLayer12.occupancy           501910                       # Layer occupancy (ticks) (Tick)
system.tol2bus.respLayer12.utilization            0.0                       # Layer utilization (Ratio)
system.tol2bus.respLayer13.occupancy        187026446                       # Layer occupancy (ticks) (Tick)
system.tol2bus.respLayer13.utilization            0.0                       # Layer utilization (Ratio)
system.tol2bus.respLayer16.occupancy           618939                       # Layer occupancy (ticks) (Tick)
system.tol2bus.respLayer16.utilization            0.0                       # Layer utilization (Ratio)
system.tol2bus.respLayer17.occupancy        485527568                       # Layer occupancy (ticks) (Tick)
system.tol2bus.respLayer17.utilization            0.0                       # Layer utilization (Ratio)
system.tol2bus.respLayer20.occupancy           589432                       # Layer occupancy (ticks) (Tick)
system.tol2bus.respLayer20.utilization            0.0                       # Layer utilization (Ratio)
system.tol2bus.respLayer21.occupancy        289860808                       # Layer occupancy (ticks) (Tick)
system.tol2bus.respLayer21.utilization            0.0                       # Layer utilization (Ratio)
system.tol2bus.respLayer24.occupancy           412949                       # Layer occupancy (ticks) (Tick)
system.tol2bus.respLayer24.utilization            0.0                       # Layer utilization (Ratio)
system.tol2bus.respLayer25.occupancy        197013877                       # Layer occupancy (ticks) (Tick)
system.tol2bus.respLayer25.utilization            0.0                       # Layer utilization (Ratio)
system.tol2bus.respLayer28.occupancy           497991                       # Layer occupancy (ticks) (Tick)
system.tol2bus.respLayer28.utilization            0.0                       # Layer utilization (Ratio)
system.tol2bus.respLayer29.occupancy        186995974                       # Layer occupancy (ticks) (Tick)
system.tol2bus.respLayer29.utilization            0.0                       # Layer utilization (Ratio)
system.tol2bus.respLayer4.occupancy            637455                       # Layer occupancy (ticks) (Tick)
system.tol2bus.respLayer4.utilization             0.0                       # Layer utilization (Ratio)
system.tol2bus.respLayer5.occupancy         485586462                       # Layer occupancy (ticks) (Tick)
system.tol2bus.respLayer5.utilization             0.0                       # Layer utilization (Ratio)
system.tol2bus.respLayer8.occupancy            594946                       # Layer occupancy (ticks) (Tick)
system.tol2bus.respLayer8.utilization             0.0                       # Layer utilization (Ratio)
system.tol2bus.respLayer9.occupancy         485561887                       # Layer occupancy (ticks) (Tick)
system.tol2bus.respLayer9.utilization             0.0                       # Layer utilization (Ratio)
system.tol2bus.snoop_filter.totRequests       3962975                       # Total number of requests made to the snoop filter. (Count)
system.tol2bus.snoop_filter.hitSingleRequests      1976031                       # Number of requests hitting in the snoop filter with a single holder of the requested data. (Count)
system.tol2bus.snoop_filter.hitMultiRequests        22736                       # Number of requests hitting in the snoop filter with multiple (>1) holders of the requested data. (Count)
system.tol2bus.snoop_filter.totSnoops           98403                       # Total number of snoops made to the snoop filter. (Count)
system.tol2bus.snoop_filter.hitSingleSnoops        94379                       # Number of snoops hitting in the snoop filter with a single holder of the requested data. (Count)
system.tol2bus.snoop_filter.hitMultiSnoops         4024                       # Number of snoops hitting in the snoop filter with multiple (>1) holders of the requested data. (Count)
system.voltage_domain.voltage                       1                       # Voltage in Volts (Volt)
system.workload.inst.arm                            0                       # number of arm instructions executed (Count)
system.workload.inst.quiesce                        0                       # number of quiesce instructions executed (Count)

---------- End Simulation Statistics   ----------
