
---------- Begin Simulation Statistics ----------
simSeconds                                   0.002410                       # Number of seconds simulated (Second)
simTicks                                   2410496500                       # Number of ticks simulated (Tick)
finalTick                                  2410496500                       # Number of ticks from beginning of simulation (restored from checkpoints and never reset) (Tick)
simFreq                                  1000000000000                       # The number of ticks per simulated second ((Tick/Second))
hostSeconds                                     13.68                       # Real time elapsed on the host (Second)
hostTickRate                                176228969                       # The number of ticks simulated per host second (ticks/s) ((Tick/Second))
hostMemory                                     711892                       # Number of bytes of host memory used (Byte)
simInsts                                      4531830                       # Number of instructions simulated (Count)
simOps                                        7942384                       # Number of ops (including micro ops) simulated (Count)
hostInstRate                                   331314                       # Simulator instruction rate (inst/s) ((Count/Second))
hostOpRate                                     580652                       # Simulator op (including micro ops) rate (op/s) ((Count/Second))
system.clk_domain.clock                          1000                       # Clock period in ticks (Tick)
system.cpu0.numCycles                         4835262                       # Number of cpu cycles simulated (Cycle)
system.cpu0.cpi                              2.047300                       # CPI: cycles per instruction (core level) ((Cycle/Count))
system.cpu0.ipc                              0.488448                       # IPC: instructions per cycle (core level) ((Count/Cycle))
system.cpu0.numWorkItemsStarted                     0                       # Number of work items this cpu started (Count)
system.cpu0.numWorkItemsCompleted                   0                       # Number of work items this cpu completed (Count)
system.cpu0.commitStats0.numInsts             2361775                       # Number of instructions committed (thread level) (Count)
system.cpu0.commitStats0.numOps               4147938                       # Number of ops (including micro ops) committed (thread level) (Count)
system.cpu0.commitStats0.numInstsNotNOP             0                       # Number of instructions committed excluding NOPs or prefetches (Count)
system.cpu0.commitStats0.numOpsNotNOP               0                       # Number of Ops (including micro ops) Simulated (Count)
system.cpu0.commitStats0.cpi                 2.047300                       # CPI: cycles per instruction (thread level) ((Cycle/Count))
system.cpu0.commitStats0.ipc                 0.488448                       # IPC: instructions per cycle (thread level) ((Count/Cycle))
system.cpu0.commitStats0.numMemRefs                 0                       # Number of memory references committed (Count)
system.cpu0.commitStats0.numFpInsts             39969                       # Number of float instructions (Count)
system.cpu0.commitStats0.numIntInsts          3981931                       # Number of integer instructions (Count)
system.cpu0.commitStats0.numLoadInsts          761691                       # Number of load instructions (Count)
system.cpu0.commitStats0.numStoreInsts         555213                       # Number of store instructions (Count)
system.cpu0.commitStats0.numVecInsts                0                       # Number of vector instructions (Count)
system.cpu0.commitStats0.committedInstType::No_OpClass       107832      2.60%      2.60% # Class of committed instruction. (Count)
system.cpu0.commitStats0.committedInstType::IntAlu      2709350     65.32%     67.92% # Class of committed instruction. (Count)
system.cpu0.commitStats0.committedInstType::IntMult         2138      0.05%     67.97% # Class of committed instruction. (Count)
system.cpu0.commitStats0.committedInstType::IntDiv           35      0.00%     67.97% # Class of committed instruction. (Count)
system.cpu0.commitStats0.committedInstType::FloatAdd         4744      0.11%     68.08% # Class of committed instruction. (Count)
system.cpu0.commitStats0.committedInstType::FloatCmp            0      0.00%     68.08% # Class of committed instruction. (Count)
system.cpu0.commitStats0.committedInstType::FloatCvt            0      0.00%     68.08% # Class of committed instruction. (Count)
system.cpu0.commitStats0.committedInstType::FloatMult            0      0.00%     68.08% # Class of committed instruction. (Count)
system.cpu0.commitStats0.committedInstType::FloatMultAcc            0      0.00%     68.08% # Class of committed instruction. (Count)
system.cpu0.commitStats0.committedInstType::FloatDiv            0      0.00%     68.08% # Class of committed instruction. (Count)
system.cpu0.commitStats0.committedInstType::FloatMisc            0      0.00%     68.08% # Class of committed instruction. (Count)
system.cpu0.commitStats0.committedInstType::FloatSqrt            0      0.00%     68.08% # Class of committed instruction. (Count)
system.cpu0.commitStats0.committedInstType::SimdAdd           24      0.00%     68.08% # Class of committed instruction. (Count)
system.cpu0.commitStats0.committedInstType::SimdAddAcc            0      0.00%     68.08% # Class of committed instruction. (Count)
system.cpu0.commitStats0.committedInstType::SimdAlu         1180      0.03%     68.11% # Class of committed instruction. (Count)
system.cpu0.commitStats0.committedInstType::SimdCmp            6      0.00%     68.11% # Class of committed instruction. (Count)
system.cpu0.commitStats0.committedInstType::SimdCvt          410      0.01%     68.12% # Class of committed instruction. (Count)
system.cpu0.commitStats0.committedInstType::SimdMisc         5315      0.13%     68.25% # Class of committed instruction. (Count)
system.cpu0.commitStats0.committedInstType::SimdMult            0      0.00%     68.25% # Class of committed instruction. (Count)
system.cpu0.commitStats0.committedInstType::SimdMultAcc            0      0.00%     68.25% # Class of committed instruction. (Count)
system.cpu0.commitStats0.committedInstType::SimdMatMultAcc            0      0.00%     68.25% # Class of committed instruction. (Count)
system.cpu0.commitStats0.committedInstType::SimdShift            0      0.00%     68.25% # Class of committed instruction. (Count)
system.cpu0.commitStats0.committedInstType::SimdShiftAcc            0      0.00%     68.25% # Class of committed instruction. (Count)
system.cpu0.commitStats0.committedInstType::SimdDiv            0      0.00%     68.25% # Class of committed instruction. (Count)
system.cpu0.commitStats0.committedInstType::SimdSqrt            0      0.00%     68.25% # Class of committed instruction. (Count)
system.cpu0.commitStats0.committedInstType::SimdFloatAdd            0      0.00%     68.25% # Class of committed instruction. (Count)
system.cpu0.commitStats0.committedInstType::SimdFloatAlu            0      0.00%     68.25% # Class of committed instruction. (Count)
system.cpu0.commitStats0.committedInstType::SimdFloatCmp            0      0.00%     68.25% # Class of committed instruction. (Count)
system.cpu0.commitStats0.committedInstType::SimdFloatCvt            0      0.00%     68.25% # Class of committed instruction. (Count)
system.cpu0.commitStats0.committedInstType::SimdFloatDiv            0      0.00%     68.25% # Class of committed instruction. (Count)
system.cpu0.commitStats0.committedInstType::SimdFloatMisc            0      0.00%     68.25% # Class of committed instruction. (Count)
system.cpu0.commitStats0.committedInstType::SimdFloatMult            0      0.00%     68.25% # Class of committed instruction. (Count)
system.cpu0.commitStats0.committedInstType::SimdFloatMultAcc            0      0.00%     68.25% # Class of committed instruction. (Count)
system.cpu0.commitStats0.committedInstType::SimdFloatMatMultAcc            0      0.00%     68.25% # Class of committed instruction. (Count)
system.cpu0.commitStats0.committedInstType::SimdFloatSqrt            0      0.00%     68.25% # Class of committed instruction. (Count)
system.cpu0.commitStats0.committedInstType::SimdReduceAdd            0      0.00%     68.25% # Class of committed instruction. (Count)
system.cpu0.commitStats0.committedInstType::SimdReduceAlu            0      0.00%     68.25% # Class of committed instruction. (Count)
system.cpu0.commitStats0.committedInstType::SimdReduceCmp            0      0.00%     68.25% # Class of committed instruction. (Count)
system.cpu0.commitStats0.committedInstType::SimdFloatReduceAdd            0      0.00%     68.25% # Class of committed instruction. (Count)
system.cpu0.commitStats0.committedInstType::SimdFloatReduceCmp            0      0.00%     68.25% # Class of committed instruction. (Count)
system.cpu0.commitStats0.committedInstType::SimdAes            0      0.00%     68.25% # Class of committed instruction. (Count)
system.cpu0.commitStats0.committedInstType::SimdAesMix            0      0.00%     68.25% # Class of committed instruction. (Count)
system.cpu0.commitStats0.committedInstType::SimdSha1Hash            0      0.00%     68.25% # Class of committed instruction. (Count)
system.cpu0.commitStats0.committedInstType::SimdSha1Hash2            0      0.00%     68.25% # Class of committed instruction. (Count)
system.cpu0.commitStats0.committedInstType::SimdSha256Hash            0      0.00%     68.25% # Class of committed instruction. (Count)
system.cpu0.commitStats0.committedInstType::SimdSha256Hash2            0      0.00%     68.25% # Class of committed instruction. (Count)
system.cpu0.commitStats0.committedInstType::SimdShaSigma2            0      0.00%     68.25% # Class of committed instruction. (Count)
system.cpu0.commitStats0.committedInstType::SimdShaSigma3            0      0.00%     68.25% # Class of committed instruction. (Count)
system.cpu0.commitStats0.committedInstType::SimdPredAlu            0      0.00%     68.25% # Class of committed instruction. (Count)
system.cpu0.commitStats0.committedInstType::Matrix            0      0.00%     68.25% # Class of committed instruction. (Count)
system.cpu0.commitStats0.committedInstType::MatrixMov            0      0.00%     68.25% # Class of committed instruction. (Count)
system.cpu0.commitStats0.committedInstType::MatrixOP            0      0.00%     68.25% # Class of committed instruction. (Count)
system.cpu0.commitStats0.committedInstType::MemRead       750819     18.10%     86.35% # Class of committed instruction. (Count)
system.cpu0.commitStats0.committedInstType::MemWrite       540906     13.04%     99.39% # Class of committed instruction. (Count)
system.cpu0.commitStats0.committedInstType::FloatMemRead        10872      0.26%     99.66% # Class of committed instruction. (Count)
system.cpu0.commitStats0.committedInstType::FloatMemWrite        14307      0.34%    100.00% # Class of committed instruction. (Count)
system.cpu0.commitStats0.committedInstType::IprAccess            0      0.00%    100.00% # Class of committed instruction. (Count)
system.cpu0.commitStats0.committedInstType::InstPrefetch            0      0.00%    100.00% # Class of committed instruction. (Count)
system.cpu0.commitStats0.committedInstType::SimdUnitStrideLoad            0      0.00%    100.00% # Class of committed instruction. (Count)
system.cpu0.commitStats0.committedInstType::SimdUnitStrideStore            0      0.00%    100.00% # Class of committed instruction. (Count)
system.cpu0.commitStats0.committedInstType::SimdUnitStrideMaskLoad            0      0.00%    100.00% # Class of committed instruction. (Count)
system.cpu0.commitStats0.committedInstType::SimdUnitStrideMaskStore            0      0.00%    100.00% # Class of committed instruction. (Count)
system.cpu0.commitStats0.committedInstType::SimdStridedLoad            0      0.00%    100.00% # Class of committed instruction. (Count)
system.cpu0.commitStats0.committedInstType::SimdStridedStore            0      0.00%    100.00% # Class of committed instruction. (Count)
system.cpu0.commitStats0.committedInstType::SimdIndexedLoad            0      0.00%    100.00% # Class of committed instruction. (Count)
system.cpu0.commitStats0.committedInstType::SimdIndexedStore            0      0.00%    100.00% # Class of committed instruction. (Count)
system.cpu0.commitStats0.committedInstType::SimdWholeRegisterLoad            0      0.00%    100.00% # Class of committed instruction. (Count)
system.cpu0.commitStats0.committedInstType::SimdWholeRegisterStore            0      0.00%    100.00% # Class of committed instruction. (Count)
system.cpu0.commitStats0.committedInstType::SimdUnitStrideFaultOnlyFirstLoad            0      0.00%    100.00% # Class of committed instruction. (Count)
system.cpu0.commitStats0.committedInstType::SimdUnitStrideSegmentedLoad            0      0.00%    100.00% # Class of committed instruction. (Count)
system.cpu0.commitStats0.committedInstType::SimdUnitStrideSegmentedStore            0      0.00%    100.00% # Class of committed instruction. (Count)
system.cpu0.commitStats0.committedInstType::SimdUnitStrideSegmentedFaultOnlyFirstLoad            0      0.00%    100.00% # Class of committed instruction. (Count)
system.cpu0.commitStats0.committedInstType::SimdStrideSegmentedLoad            0      0.00%    100.00% # Class of committed instruction. (Count)
system.cpu0.commitStats0.committedInstType::SimdStrideSegmentedStore            0      0.00%    100.00% # Class of committed instruction. (Count)
system.cpu0.commitStats0.committedInstType::SimdExt            0      0.00%    100.00% # Class of committed instruction. (Count)
system.cpu0.commitStats0.committedInstType::SimdFloatExt            0      0.00%    100.00% # Class of committed instruction. (Count)
system.cpu0.commitStats0.committedInstType::SimdConfig            0      0.00%    100.00% # Class of committed instruction. (Count)
system.cpu0.commitStats0.committedInstType::total      4147938                       # Class of committed instruction. (Count)
system.cpu0.commitStats0.committedControl::IsControl       378698                       # Class of control type instructions committed (Count)
system.cpu0.commitStats0.committedControl::IsDirectControl       273645                       # Class of control type instructions committed (Count)
system.cpu0.commitStats0.committedControl::IsIndirectControl       105053                       # Class of control type instructions committed (Count)
system.cpu0.commitStats0.committedControl::IsCondControl       149777                       # Class of control type instructions committed (Count)
system.cpu0.commitStats0.committedControl::IsUncondControl       228921                       # Class of control type instructions committed (Count)
system.cpu0.commitStats0.committedControl::IsCall       104041                       # Class of control type instructions committed (Count)
system.cpu0.commitStats0.committedControl::IsReturn       104036                       # Class of control type instructions committed (Count)
system.cpu0.dcache.demandHits::cpu0.data      1301641                       # number of demand (read+write) hits (Count)
system.cpu0.dcache.demandHits::total          1301641                       # number of demand (read+write) hits (Count)
system.cpu0.dcache.overallHits::cpu0.data      1301641                       # number of overall hits (Count)
system.cpu0.dcache.overallHits::total         1301641                       # number of overall hits (Count)
system.cpu0.dcache.demandMisses::cpu0.data         1027                       # number of demand (read+write) misses (Count)
system.cpu0.dcache.demandMisses::total           1027                       # number of demand (read+write) misses (Count)
system.cpu0.dcache.overallMisses::cpu0.data         1027                       # number of overall misses (Count)
system.cpu0.dcache.overallMisses::total          1027                       # number of overall misses (Count)
system.cpu0.dcache.demandAccesses::cpu0.data      1302668                       # number of demand (read+write) accesses (Count)
system.cpu0.dcache.demandAccesses::total      1302668                       # number of demand (read+write) accesses (Count)
system.cpu0.dcache.overallAccesses::cpu0.data      1302668                       # number of overall (read+write) accesses (Count)
system.cpu0.dcache.overallAccesses::total      1302668                       # number of overall (read+write) accesses (Count)
system.cpu0.dcache.demandMissRate::cpu0.data     0.000788                       # miss rate for demand accesses (Ratio)
system.cpu0.dcache.demandMissRate::total     0.000788                       # miss rate for demand accesses (Ratio)
system.cpu0.dcache.overallMissRate::cpu0.data     0.000788                       # miss rate for overall accesses (Ratio)
system.cpu0.dcache.overallMissRate::total     0.000788                       # miss rate for overall accesses (Ratio)
system.cpu0.dcache.blockedCycles::no_mshrs            0                       # number of cycles access was blocked (Cycle)
system.cpu0.dcache.blockedCycles::no_targets            0                       # number of cycles access was blocked (Cycle)
system.cpu0.dcache.blockedCauses::no_mshrs            0                       # number of times access was blocked (Count)
system.cpu0.dcache.blockedCauses::no_targets            0                       # number of times access was blocked (Count)
system.cpu0.dcache.avgBlocked::no_mshrs           nan                       # average number of cycles each access was blocked ((Cycle/Count))
system.cpu0.dcache.avgBlocked::no_targets          nan                       # average number of cycles each access was blocked ((Cycle/Count))
system.cpu0.dcache.writebacks::writebacks          105                       # number of writebacks (Count)
system.cpu0.dcache.writebacks::total              105                       # number of writebacks (Count)
system.cpu0.dcache.replacements                   146                       # number of replacements (Count)
system.cpu0.dcache.LockedRMWReadReq.hits::cpu0.data         6738                       # number of LockedRMWReadReq hits (Count)
system.cpu0.dcache.LockedRMWReadReq.hits::total         6738                       # number of LockedRMWReadReq hits (Count)
system.cpu0.dcache.LockedRMWReadReq.misses::cpu0.data          393                       # number of LockedRMWReadReq misses (Count)
system.cpu0.dcache.LockedRMWReadReq.misses::total          393                       # number of LockedRMWReadReq misses (Count)
system.cpu0.dcache.LockedRMWReadReq.accesses::cpu0.data         7131                       # number of LockedRMWReadReq accesses(hits+misses) (Count)
system.cpu0.dcache.LockedRMWReadReq.accesses::total         7131                       # number of LockedRMWReadReq accesses(hits+misses) (Count)
system.cpu0.dcache.LockedRMWReadReq.missRate::cpu0.data     0.055111                       # miss rate for LockedRMWReadReq accesses (Ratio)
system.cpu0.dcache.LockedRMWReadReq.missRate::total     0.055111                       # miss rate for LockedRMWReadReq accesses (Ratio)
system.cpu0.dcache.LockedRMWWriteReq.hits::cpu0.data         7131                       # number of LockedRMWWriteReq hits (Count)
system.cpu0.dcache.LockedRMWWriteReq.hits::total         7131                       # number of LockedRMWWriteReq hits (Count)
system.cpu0.dcache.LockedRMWWriteReq.accesses::cpu0.data         7131                       # number of LockedRMWWriteReq accesses(hits+misses) (Count)
system.cpu0.dcache.LockedRMWWriteReq.accesses::total         7131                       # number of LockedRMWWriteReq accesses(hits+misses) (Count)
system.cpu0.dcache.ReadReq.hits::cpu0.data       754286                       # number of ReadReq hits (Count)
system.cpu0.dcache.ReadReq.hits::total         754286                       # number of ReadReq hits (Count)
system.cpu0.dcache.ReadReq.misses::cpu0.data          301                       # number of ReadReq misses (Count)
system.cpu0.dcache.ReadReq.misses::total          301                       # number of ReadReq misses (Count)
system.cpu0.dcache.ReadReq.accesses::cpu0.data       754587                       # number of ReadReq accesses(hits+misses) (Count)
system.cpu0.dcache.ReadReq.accesses::total       754587                       # number of ReadReq accesses(hits+misses) (Count)
system.cpu0.dcache.ReadReq.missRate::cpu0.data     0.000399                       # miss rate for ReadReq accesses (Ratio)
system.cpu0.dcache.ReadReq.missRate::total     0.000399                       # miss rate for ReadReq accesses (Ratio)
system.cpu0.dcache.WriteReq.hits::cpu0.data       547355                       # number of WriteReq hits (Count)
system.cpu0.dcache.WriteReq.hits::total        547355                       # number of WriteReq hits (Count)
system.cpu0.dcache.WriteReq.misses::cpu0.data          726                       # number of WriteReq misses (Count)
system.cpu0.dcache.WriteReq.misses::total          726                       # number of WriteReq misses (Count)
system.cpu0.dcache.WriteReq.accesses::cpu0.data       548081                       # number of WriteReq accesses(hits+misses) (Count)
system.cpu0.dcache.WriteReq.accesses::total       548081                       # number of WriteReq accesses(hits+misses) (Count)
system.cpu0.dcache.WriteReq.missRate::cpu0.data     0.001325                       # miss rate for WriteReq accesses (Ratio)
system.cpu0.dcache.WriteReq.missRate::total     0.001325                       # miss rate for WriteReq accesses (Ratio)
system.cpu0.dcache.power_state.pwrStateResidencyTicks::UNDEFINED   2410496500                       # Cumulative time (in ticks) in various power states (Tick)
system.cpu0.dcache.tags.tagsInUse          735.888210                       # Average ticks per tags in use ((Tick/Count))
system.cpu0.dcache.tags.totalRefs             1316930                       # Total number of references to valid blocks. (Count)
system.cpu0.dcache.tags.sampledRefs              1374                       # Sample count of references to valid blocks. (Count)
system.cpu0.dcache.tags.avgRefs            958.464338                       # Average number of references to valid blocks. ((Count/Count))
system.cpu0.dcache.tags.warmupTick               2000                       # The tick when the warmup percentage was hit. (Tick)
system.cpu0.dcache.tags.occupancies::cpu0.data   735.888210                       # Average occupied blocks per tick, per requestor ((Count/Tick))
system.cpu0.dcache.tags.avgOccs::cpu0.data     0.718641                       # Average percentage of cache occupancy ((Ratio/Tick))
system.cpu0.dcache.tags.avgOccs::total       0.718641                       # Average percentage of cache occupancy ((Ratio/Tick))
system.cpu0.dcache.tags.occupanciesTaskId::1024          792                       # Occupied blocks per task id (Count)
system.cpu0.dcache.tags.ageTaskId_1024::0           14                       # Occupied blocks per task id, per block age (Count)
system.cpu0.dcache.tags.ageTaskId_1024::2           54                       # Occupied blocks per task id, per block age (Count)
system.cpu0.dcache.tags.ageTaskId_1024::3          724                       # Occupied blocks per task id, per block age (Count)
system.cpu0.dcache.tags.ratioOccsTaskId::1024     0.773438                       # Ratio of occupied blocks and all blocks, per task id (Ratio)
system.cpu0.dcache.tags.tagAccesses           2635234                       # Number of tag accesses (Count)
system.cpu0.dcache.tags.dataAccesses          2635234                       # Number of data accesses (Count)
system.cpu0.dcache.tags.power_state.pwrStateResidencyTicks::UNDEFINED   2410496500                       # Cumulative time (in ticks) in various power states (Tick)
system.cpu0.dtb_walker_cache.blockedCycles::no_mshrs            0                       # number of cycles access was blocked (Cycle)
system.cpu0.dtb_walker_cache.blockedCycles::no_targets            0                       # number of cycles access was blocked (Cycle)
system.cpu0.dtb_walker_cache.blockedCauses::no_mshrs            0                       # number of times access was blocked (Count)
system.cpu0.dtb_walker_cache.blockedCauses::no_targets            0                       # number of times access was blocked (Count)
system.cpu0.dtb_walker_cache.avgBlocked::no_mshrs          nan                       # average number of cycles each access was blocked ((Cycle/Count))
system.cpu0.dtb_walker_cache.avgBlocked::no_targets          nan                       # average number of cycles each access was blocked ((Cycle/Count))
system.cpu0.dtb_walker_cache.replacements            0                       # number of replacements (Count)
system.cpu0.dtb_walker_cache.power_state.pwrStateResidencyTicks::UNDEFINED   2410496500                       # Cumulative time (in ticks) in various power states (Tick)
system.cpu0.dtb_walker_cache.tags.tagsInUse            0                       # Average ticks per tags in use ((Tick/Count))
system.cpu0.dtb_walker_cache.tags.totalRefs            0                       # Total number of references to valid blocks. (Count)
system.cpu0.dtb_walker_cache.tags.sampledRefs            0                       # Sample count of references to valid blocks. (Count)
system.cpu0.dtb_walker_cache.tags.avgRefs          nan                       # Average number of references to valid blocks. ((Count/Count))
system.cpu0.dtb_walker_cache.tags.warmupTick            0                       # The tick when the warmup percentage was hit. (Tick)
system.cpu0.dtb_walker_cache.tags.tagAccesses            0                       # Number of tag accesses (Count)
system.cpu0.dtb_walker_cache.tags.dataAccesses            0                       # Number of data accesses (Count)
system.cpu0.dtb_walker_cache.tags.power_state.pwrStateResidencyTicks::UNDEFINED   2410496500                       # Cumulative time (in ticks) in various power states (Tick)
system.cpu0.exec_context.thread_0.numMatAluAccesses            0                       # Number of matrix alu accesses (Count)
system.cpu0.exec_context.thread_0.numCallsReturns       208077                       # Number of times a function call or return occured (Count)
system.cpu0.exec_context.thread_0.numMatInsts            0                       # Number of matrix instructions (Count)
system.cpu0.exec_context.thread_0.numIdleCycles     0.002006                       # Number of idle cycles (Cycle)
system.cpu0.exec_context.thread_0.numBusyCycles 4835261.997994                       # Number of busy cycles (Cycle)
system.cpu0.exec_context.thread_0.notIdleFraction     1.000000                       # Percentage of non-idle cycles (Ratio)
system.cpu0.exec_context.thread_0.idleFraction     0.000000                       # Percentage of idle cycles (Ratio)
system.cpu0.executeStats0.numInsts                  0                       # Number of executed instructions (Count)
system.cpu0.executeStats0.numNop                    0                       # Number of nop insts executed (Count)
system.cpu0.executeStats0.numBranches               0                       # Number of branches executed (Count)
system.cpu0.executeStats0.numLoadInsts              0                       # Number of load instructions executed (Count)
system.cpu0.executeStats0.numStoreInsts       1316904                       # Number of stores executed (Count)
system.cpu0.executeStats0.instRate                  0                       # Inst execution rate ((Count/Cycle))
system.cpu0.executeStats0.numFpAluAccesses        39969                       # Number of float alu accesses (Count)
system.cpu0.executeStats0.numFpRegReads         29744                       # Number of times the floating registers were read (Count)
system.cpu0.executeStats0.numFpRegWrites        25184                       # Number of times the floating registers were written (Count)
system.cpu0.executeStats0.numIntAluAccesses      3981931                       # Number of integer alu accesses (Count)
system.cpu0.executeStats0.numIntRegReads      4537872                       # Number of times the integer registers were read (Count)
system.cpu0.executeStats0.numIntRegWrites      2880136                       # Number of times the integer registers were written (Count)
system.cpu0.executeStats0.numMemRefs          1316904                       # Number of memory refs (Count)
system.cpu0.executeStats0.numMiscRegReads      1992283                       # Number of times the Misc registers were read (Count)
system.cpu0.executeStats0.numVecAluAccesses            0                       # Number of vector alu accesses (Count)
system.cpu0.executeStats0.numDiscardedOps            0                       # Number of ops (including micro ops) which were discarded before commit (Count)
system.cpu0.fetchStats0.numInsts              2361775                       # Number of instructions fetched (thread level) (Count)
system.cpu0.fetchStats0.numOps                4147938                       # Number of ops (including micro ops) fetched (thread level) (Count)
system.cpu0.fetchStats0.fetchRate            0.488448                       # Number of inst fetches per cycle ((Count/Cycle))
system.cpu0.fetchStats0.numBranches            378698                       # Number of branches fetched (Count)
system.cpu0.fetchStats0.branchRate           0.078320                       # Number of branch fetches per cycle (Ratio)
system.cpu0.fetchStats0.numFetchSuspends            0                       # Number of times Execute suspended instruction fetching (Count)
system.cpu0.icache.demandHits::cpu0.inst      3038645                       # number of demand (read+write) hits (Count)
system.cpu0.icache.demandHits::total          3038645                       # number of demand (read+write) hits (Count)
system.cpu0.icache.overallHits::cpu0.inst      3038645                       # number of overall hits (Count)
system.cpu0.icache.overallHits::total         3038645                       # number of overall hits (Count)
system.cpu0.icache.demandMisses::cpu0.inst        10456                       # number of demand (read+write) misses (Count)
system.cpu0.icache.demandMisses::total          10456                       # number of demand (read+write) misses (Count)
system.cpu0.icache.overallMisses::cpu0.inst        10456                       # number of overall misses (Count)
system.cpu0.icache.overallMisses::total         10456                       # number of overall misses (Count)
system.cpu0.icache.demandAccesses::cpu0.inst      3049101                       # number of demand (read+write) accesses (Count)
system.cpu0.icache.demandAccesses::total      3049101                       # number of demand (read+write) accesses (Count)
system.cpu0.icache.overallAccesses::cpu0.inst      3049101                       # number of overall (read+write) accesses (Count)
system.cpu0.icache.overallAccesses::total      3049101                       # number of overall (read+write) accesses (Count)
system.cpu0.icache.demandMissRate::cpu0.inst     0.003429                       # miss rate for demand accesses (Ratio)
system.cpu0.icache.demandMissRate::total     0.003429                       # miss rate for demand accesses (Ratio)
system.cpu0.icache.overallMissRate::cpu0.inst     0.003429                       # miss rate for overall accesses (Ratio)
system.cpu0.icache.overallMissRate::total     0.003429                       # miss rate for overall accesses (Ratio)
system.cpu0.icache.blockedCycles::no_mshrs            0                       # number of cycles access was blocked (Cycle)
system.cpu0.icache.blockedCycles::no_targets            0                       # number of cycles access was blocked (Cycle)
system.cpu0.icache.blockedCauses::no_mshrs            0                       # number of times access was blocked (Count)
system.cpu0.icache.blockedCauses::no_targets            0                       # number of times access was blocked (Count)
system.cpu0.icache.avgBlocked::no_mshrs           nan                       # average number of cycles each access was blocked ((Cycle/Count))
system.cpu0.icache.avgBlocked::no_targets          nan                       # average number of cycles each access was blocked ((Cycle/Count))
system.cpu0.icache.writebacks::writebacks        10200                       # number of writebacks (Count)
system.cpu0.icache.writebacks::total            10200                       # number of writebacks (Count)
system.cpu0.icache.replacements                 10200                       # number of replacements (Count)
system.cpu0.icache.ReadReq.hits::cpu0.inst      3038645                       # number of ReadReq hits (Count)
system.cpu0.icache.ReadReq.hits::total        3038645                       # number of ReadReq hits (Count)
system.cpu0.icache.ReadReq.misses::cpu0.inst        10456                       # number of ReadReq misses (Count)
system.cpu0.icache.ReadReq.misses::total        10456                       # number of ReadReq misses (Count)
system.cpu0.icache.ReadReq.accesses::cpu0.inst      3049101                       # number of ReadReq accesses(hits+misses) (Count)
system.cpu0.icache.ReadReq.accesses::total      3049101                       # number of ReadReq accesses(hits+misses) (Count)
system.cpu0.icache.ReadReq.missRate::cpu0.inst     0.003429                       # miss rate for ReadReq accesses (Ratio)
system.cpu0.icache.ReadReq.missRate::total     0.003429                       # miss rate for ReadReq accesses (Ratio)
system.cpu0.icache.power_state.pwrStateResidencyTicks::UNDEFINED   2410496500                       # Cumulative time (in ticks) in various power states (Tick)
system.cpu0.icache.tags.tagsInUse          255.568973                       # Average ticks per tags in use ((Tick/Count))
system.cpu0.icache.tags.totalRefs             3049101                       # Total number of references to valid blocks. (Count)
system.cpu0.icache.tags.sampledRefs             10456                       # Sample count of references to valid blocks. (Count)
system.cpu0.icache.tags.avgRefs            291.612567                       # Average number of references to valid blocks. ((Count/Count))
system.cpu0.icache.tags.warmupTick                  0                       # The tick when the warmup percentage was hit. (Tick)
system.cpu0.icache.tags.occupancies::cpu0.inst   255.568973                       # Average occupied blocks per tick, per requestor ((Count/Tick))
system.cpu0.icache.tags.avgOccs::cpu0.inst     0.998316                       # Average percentage of cache occupancy ((Ratio/Tick))
system.cpu0.icache.tags.avgOccs::total       0.998316                       # Average percentage of cache occupancy ((Ratio/Tick))
system.cpu0.icache.tags.occupanciesTaskId::1024          256                       # Occupied blocks per task id (Count)
system.cpu0.icache.tags.ageTaskId_1024::0          102                       # Occupied blocks per task id, per block age (Count)
system.cpu0.icache.tags.ageTaskId_1024::2            9                       # Occupied blocks per task id, per block age (Count)
system.cpu0.icache.tags.ageTaskId_1024::3          145                       # Occupied blocks per task id, per block age (Count)
system.cpu0.icache.tags.ratioOccsTaskId::1024            1                       # Ratio of occupied blocks and all blocks, per task id (Ratio)
system.cpu0.icache.tags.tagAccesses           6108658                       # Number of tag accesses (Count)
system.cpu0.icache.tags.dataAccesses          6108658                       # Number of data accesses (Count)
system.cpu0.icache.tags.power_state.pwrStateResidencyTicks::UNDEFINED   2410496500                       # Cumulative time (in ticks) in various power states (Tick)
system.cpu0.interrupts.clk_domain.clock          8000                       # Clock period in ticks (Tick)
system.cpu0.itb_walker_cache.blockedCycles::no_mshrs            0                       # number of cycles access was blocked (Cycle)
system.cpu0.itb_walker_cache.blockedCycles::no_targets            0                       # number of cycles access was blocked (Cycle)
system.cpu0.itb_walker_cache.blockedCauses::no_mshrs            0                       # number of times access was blocked (Count)
system.cpu0.itb_walker_cache.blockedCauses::no_targets            0                       # number of times access was blocked (Count)
system.cpu0.itb_walker_cache.avgBlocked::no_mshrs          nan                       # average number of cycles each access was blocked ((Cycle/Count))
system.cpu0.itb_walker_cache.avgBlocked::no_targets          nan                       # average number of cycles each access was blocked ((Cycle/Count))
system.cpu0.itb_walker_cache.replacements            0                       # number of replacements (Count)
system.cpu0.itb_walker_cache.power_state.pwrStateResidencyTicks::UNDEFINED   2410496500                       # Cumulative time (in ticks) in various power states (Tick)
system.cpu0.itb_walker_cache.tags.tagsInUse            0                       # Average ticks per tags in use ((Tick/Count))
system.cpu0.itb_walker_cache.tags.totalRefs            0                       # Total number of references to valid blocks. (Count)
system.cpu0.itb_walker_cache.tags.sampledRefs            0                       # Sample count of references to valid blocks. (Count)
system.cpu0.itb_walker_cache.tags.avgRefs          nan                       # Average number of references to valid blocks. ((Count/Count))
system.cpu0.itb_walker_cache.tags.warmupTick            0                       # The tick when the warmup percentage was hit. (Tick)
system.cpu0.itb_walker_cache.tags.tagAccesses            0                       # Number of tag accesses (Count)
system.cpu0.itb_walker_cache.tags.dataAccesses            0                       # Number of data accesses (Count)
system.cpu0.itb_walker_cache.tags.power_state.pwrStateResidencyTicks::UNDEFINED   2410496500                       # Cumulative time (in ticks) in various power states (Tick)
system.cpu0.mmu.dtb.rdAccesses                 761719                       # TLB accesses on read requests (Count)
system.cpu0.mmu.dtb.wrAccesses                 555217                       # TLB accesses on write requests (Count)
system.cpu0.mmu.dtb.rdMisses                       49                       # TLB misses on read requests (Count)
system.cpu0.mmu.dtb.wrMisses                       28                       # TLB misses on write requests (Count)
system.cpu0.mmu.dtb.walker.power_state.pwrStateResidencyTicks::UNDEFINED   2410496500                       # Cumulative time (in ticks) in various power states (Tick)
system.cpu0.mmu.itb.rdAccesses                      0                       # TLB accesses on read requests (Count)
system.cpu0.mmu.itb.wrAccesses                3049101                       # TLB accesses on write requests (Count)
system.cpu0.mmu.itb.rdMisses                        0                       # TLB misses on read requests (Count)
system.cpu0.mmu.itb.wrMisses                      188                       # TLB misses on write requests (Count)
system.cpu0.mmu.itb.walker.power_state.pwrStateResidencyTicks::UNDEFINED   2410496500                       # Cumulative time (in ticks) in various power states (Tick)
system.cpu0.power_state.pwrStateResidencyTicks::ON   2410496500                       # Cumulative time (in ticks) in various power states (Tick)
system.cpu0.thread_0.numInsts                       0                       # Number of Instructions committed (Count)
system.cpu0.thread_0.numOps                         0                       # Number of Ops committed (Count)
system.cpu0.thread_0.numMemRefs                     0                       # Number of Memory References (Count)
system.cpu0.workload.numSyscalls                 1038                       # Number of system calls (Count)
system.cpu1.numCycles                         4831060                       # Number of cpu cycles simulated (Cycle)
system.cpu1.cpi                              2.224133                       # CPI: cycles per instruction (core level) ((Cycle/Count))
system.cpu1.ipc                              0.449613                       # IPC: instructions per cycle (core level) ((Count/Cycle))
system.cpu1.numWorkItemsStarted                     0                       # Number of work items this cpu started (Count)
system.cpu1.numWorkItemsCompleted                   0                       # Number of work items this cpu completed (Count)
system.cpu1.commitStats0.numInsts             2172109                       # Number of instructions committed (thread level) (Count)
system.cpu1.commitStats0.numOps               3796503                       # Number of ops (including micro ops) committed (thread level) (Count)
system.cpu1.commitStats0.numInstsNotNOP             0                       # Number of instructions committed excluding NOPs or prefetches (Count)
system.cpu1.commitStats0.numOpsNotNOP               0                       # Number of Ops (including micro ops) Simulated (Count)
system.cpu1.commitStats0.cpi                 2.224133                       # CPI: cycles per instruction (thread level) ((Cycle/Count))
system.cpu1.commitStats0.ipc                 0.449613                       # IPC: instructions per cycle (thread level) ((Count/Cycle))
system.cpu1.commitStats0.numMemRefs                 0                       # Number of memory references committed (Count)
system.cpu1.commitStats0.numFpInsts             25396                       # Number of float instructions (Count)
system.cpu1.commitStats0.numIntInsts          3639234                       # Number of integer instructions (Count)
system.cpu1.commitStats0.numLoadInsts          676313                       # Number of load instructions (Count)
system.cpu1.commitStats0.numStoreInsts         494032                       # Number of store instructions (Count)
system.cpu1.commitStats0.numVecInsts                0                       # Number of vector instructions (Count)
system.cpu1.commitStats0.committedInstType::No_OpClass        95550      2.52%      2.52% # Class of committed instruction. (Count)
system.cpu1.commitStats0.committedInstType::IntAlu      2527779     66.58%     69.10% # Class of committed instruction. (Count)
system.cpu1.commitStats0.committedInstType::IntMult            0      0.00%     69.10% # Class of committed instruction. (Count)
system.cpu1.commitStats0.committedInstType::IntDiv            0      0.00%     69.10% # Class of committed instruction. (Count)
system.cpu1.commitStats0.committedInstType::FloatAdd         1247      0.03%     69.13% # Class of committed instruction. (Count)
system.cpu1.commitStats0.committedInstType::FloatCmp            0      0.00%     69.13% # Class of committed instruction. (Count)
system.cpu1.commitStats0.committedInstType::FloatCvt            0      0.00%     69.13% # Class of committed instruction. (Count)
system.cpu1.commitStats0.committedInstType::FloatMult            0      0.00%     69.13% # Class of committed instruction. (Count)
system.cpu1.commitStats0.committedInstType::FloatMultAcc            0      0.00%     69.13% # Class of committed instruction. (Count)
system.cpu1.commitStats0.committedInstType::FloatDiv            0      0.00%     69.13% # Class of committed instruction. (Count)
system.cpu1.commitStats0.committedInstType::FloatMisc            0      0.00%     69.13% # Class of committed instruction. (Count)
system.cpu1.commitStats0.committedInstType::FloatSqrt            0      0.00%     69.13% # Class of committed instruction. (Count)
system.cpu1.commitStats0.committedInstType::SimdAdd            0      0.00%     69.13% # Class of committed instruction. (Count)
system.cpu1.commitStats0.committedInstType::SimdAddAcc            0      0.00%     69.13% # Class of committed instruction. (Count)
system.cpu1.commitStats0.committedInstType::SimdAlu          240      0.01%     69.14% # Class of committed instruction. (Count)
system.cpu1.commitStats0.committedInstType::SimdCmp            0      0.00%     69.14% # Class of committed instruction. (Count)
system.cpu1.commitStats0.committedInstType::SimdCvt            0      0.00%     69.14% # Class of committed instruction. (Count)
system.cpu1.commitStats0.committedInstType::SimdMisc         1342      0.04%     69.17% # Class of committed instruction. (Count)
system.cpu1.commitStats0.committedInstType::SimdMult            0      0.00%     69.17% # Class of committed instruction. (Count)
system.cpu1.commitStats0.committedInstType::SimdMultAcc            0      0.00%     69.17% # Class of committed instruction. (Count)
system.cpu1.commitStats0.committedInstType::SimdMatMultAcc            0      0.00%     69.17% # Class of committed instruction. (Count)
system.cpu1.commitStats0.committedInstType::SimdShift            0      0.00%     69.17% # Class of committed instruction. (Count)
system.cpu1.commitStats0.committedInstType::SimdShiftAcc            0      0.00%     69.17% # Class of committed instruction. (Count)
system.cpu1.commitStats0.committedInstType::SimdDiv            0      0.00%     69.17% # Class of committed instruction. (Count)
system.cpu1.commitStats0.committedInstType::SimdSqrt            0      0.00%     69.17% # Class of committed instruction. (Count)
system.cpu1.commitStats0.committedInstType::SimdFloatAdd            0      0.00%     69.17% # Class of committed instruction. (Count)
system.cpu1.commitStats0.committedInstType::SimdFloatAlu            0      0.00%     69.17% # Class of committed instruction. (Count)
system.cpu1.commitStats0.committedInstType::SimdFloatCmp            0      0.00%     69.17% # Class of committed instruction. (Count)
system.cpu1.commitStats0.committedInstType::SimdFloatCvt            0      0.00%     69.17% # Class of committed instruction. (Count)
system.cpu1.commitStats0.committedInstType::SimdFloatDiv            0      0.00%     69.17% # Class of committed instruction. (Count)
system.cpu1.commitStats0.committedInstType::SimdFloatMisc            0      0.00%     69.17% # Class of committed instruction. (Count)
system.cpu1.commitStats0.committedInstType::SimdFloatMult            0      0.00%     69.17% # Class of committed instruction. (Count)
system.cpu1.commitStats0.committedInstType::SimdFloatMultAcc            0      0.00%     69.17% # Class of committed instruction. (Count)
system.cpu1.commitStats0.committedInstType::SimdFloatMatMultAcc            0      0.00%     69.17% # Class of committed instruction. (Count)
system.cpu1.commitStats0.committedInstType::SimdFloatSqrt            0      0.00%     69.17% # Class of committed instruction. (Count)
system.cpu1.commitStats0.committedInstType::SimdReduceAdd            0      0.00%     69.17% # Class of committed instruction. (Count)
system.cpu1.commitStats0.committedInstType::SimdReduceAlu            0      0.00%     69.17% # Class of committed instruction. (Count)
system.cpu1.commitStats0.committedInstType::SimdReduceCmp            0      0.00%     69.17% # Class of committed instruction. (Count)
system.cpu1.commitStats0.committedInstType::SimdFloatReduceAdd            0      0.00%     69.17% # Class of committed instruction. (Count)
system.cpu1.commitStats0.committedInstType::SimdFloatReduceCmp            0      0.00%     69.17% # Class of committed instruction. (Count)
system.cpu1.commitStats0.committedInstType::SimdAes            0      0.00%     69.17% # Class of committed instruction. (Count)
system.cpu1.commitStats0.committedInstType::SimdAesMix            0      0.00%     69.17% # Class of committed instruction. (Count)
system.cpu1.commitStats0.committedInstType::SimdSha1Hash            0      0.00%     69.17% # Class of committed instruction. (Count)
system.cpu1.commitStats0.committedInstType::SimdSha1Hash2            0      0.00%     69.17% # Class of committed instruction. (Count)
system.cpu1.commitStats0.committedInstType::SimdSha256Hash            0      0.00%     69.17% # Class of committed instruction. (Count)
system.cpu1.commitStats0.committedInstType::SimdSha256Hash2            0      0.00%     69.17% # Class of committed instruction. (Count)
system.cpu1.commitStats0.committedInstType::SimdShaSigma2            0      0.00%     69.17% # Class of committed instruction. (Count)
system.cpu1.commitStats0.committedInstType::SimdShaSigma3            0      0.00%     69.17% # Class of committed instruction. (Count)
system.cpu1.commitStats0.committedInstType::SimdPredAlu            0      0.00%     69.17% # Class of committed instruction. (Count)
system.cpu1.commitStats0.committedInstType::Matrix            0      0.00%     69.17% # Class of committed instruction. (Count)
system.cpu1.commitStats0.committedInstType::MatrixMov            0      0.00%     69.17% # Class of committed instruction. (Count)
system.cpu1.commitStats0.committedInstType::MatrixOP            0      0.00%     69.17% # Class of committed instruction. (Count)
system.cpu1.commitStats0.committedInstType::MemRead       666132     17.55%     86.72% # Class of committed instruction. (Count)
system.cpu1.commitStats0.committedInstType::MemWrite       482925     12.72%     99.44% # Class of committed instruction. (Count)
system.cpu1.commitStats0.committedInstType::FloatMemRead        10181      0.27%     99.71% # Class of committed instruction. (Count)
system.cpu1.commitStats0.committedInstType::FloatMemWrite        11107      0.29%    100.00% # Class of committed instruction. (Count)
system.cpu1.commitStats0.committedInstType::IprAccess            0      0.00%    100.00% # Class of committed instruction. (Count)
system.cpu1.commitStats0.committedInstType::InstPrefetch            0      0.00%    100.00% # Class of committed instruction. (Count)
system.cpu1.commitStats0.committedInstType::SimdUnitStrideLoad            0      0.00%    100.00% # Class of committed instruction. (Count)
system.cpu1.commitStats0.committedInstType::SimdUnitStrideStore            0      0.00%    100.00% # Class of committed instruction. (Count)
system.cpu1.commitStats0.committedInstType::SimdUnitStrideMaskLoad            0      0.00%    100.00% # Class of committed instruction. (Count)
system.cpu1.commitStats0.committedInstType::SimdUnitStrideMaskStore            0      0.00%    100.00% # Class of committed instruction. (Count)
system.cpu1.commitStats0.committedInstType::SimdStridedLoad            0      0.00%    100.00% # Class of committed instruction. (Count)
system.cpu1.commitStats0.committedInstType::SimdStridedStore            0      0.00%    100.00% # Class of committed instruction. (Count)
system.cpu1.commitStats0.committedInstType::SimdIndexedLoad            0      0.00%    100.00% # Class of committed instruction. (Count)
system.cpu1.commitStats0.committedInstType::SimdIndexedStore            0      0.00%    100.00% # Class of committed instruction. (Count)
system.cpu1.commitStats0.committedInstType::SimdWholeRegisterLoad            0      0.00%    100.00% # Class of committed instruction. (Count)
system.cpu1.commitStats0.committedInstType::SimdWholeRegisterStore            0      0.00%    100.00% # Class of committed instruction. (Count)
system.cpu1.commitStats0.committedInstType::SimdUnitStrideFaultOnlyFirstLoad            0      0.00%    100.00% # Class of committed instruction. (Count)
system.cpu1.commitStats0.committedInstType::SimdUnitStrideSegmentedLoad            0      0.00%    100.00% # Class of committed instruction. (Count)
system.cpu1.commitStats0.committedInstType::SimdUnitStrideSegmentedStore            0      0.00%    100.00% # Class of committed instruction. (Count)
system.cpu1.commitStats0.committedInstType::SimdUnitStrideSegmentedFaultOnlyFirstLoad            0      0.00%    100.00% # Class of committed instruction. (Count)
system.cpu1.commitStats0.committedInstType::SimdStrideSegmentedLoad            0      0.00%    100.00% # Class of committed instruction. (Count)
system.cpu1.commitStats0.committedInstType::SimdStrideSegmentedStore            0      0.00%    100.00% # Class of committed instruction. (Count)
system.cpu1.commitStats0.committedInstType::SimdExt            0      0.00%    100.00% # Class of committed instruction. (Count)
system.cpu1.commitStats0.committedInstType::SimdFloatExt            0      0.00%    100.00% # Class of committed instruction. (Count)
system.cpu1.commitStats0.committedInstType::SimdConfig            0      0.00%    100.00% # Class of committed instruction. (Count)
system.cpu1.commitStats0.committedInstType::total      3796503                       # Class of committed instruction. (Count)
system.cpu1.commitStats0.committedControl::IsControl       358016                       # Class of control type instructions committed (Count)
system.cpu1.commitStats0.committedControl::IsDirectControl       265347                       # Class of control type instructions committed (Count)
system.cpu1.commitStats0.committedControl::IsIndirectControl        92669                       # Class of control type instructions committed (Count)
system.cpu1.commitStats0.committedControl::IsCondControl       154104                       # Class of control type instructions committed (Count)
system.cpu1.commitStats0.committedControl::IsUncondControl       203912                       # Class of control type instructions committed (Count)
system.cpu1.commitStats0.committedControl::IsCall        92169                       # Class of control type instructions committed (Count)
system.cpu1.commitStats0.committedControl::IsReturn        92166                       # Class of control type instructions committed (Count)
system.cpu1.dcache.demandHits::cpu1.data      1159853                       # number of demand (read+write) hits (Count)
system.cpu1.dcache.demandHits::total          1159853                       # number of demand (read+write) hits (Count)
system.cpu1.dcache.overallHits::cpu1.data      1159853                       # number of overall hits (Count)
system.cpu1.dcache.overallHits::total         1159853                       # number of overall hits (Count)
system.cpu1.dcache.demandMisses::cpu1.data          420                       # number of demand (read+write) misses (Count)
system.cpu1.dcache.demandMisses::total            420                       # number of demand (read+write) misses (Count)
system.cpu1.dcache.overallMisses::cpu1.data          420                       # number of overall misses (Count)
system.cpu1.dcache.overallMisses::total           420                       # number of overall misses (Count)
system.cpu1.dcache.demandAccesses::cpu1.data      1160273                       # number of demand (read+write) accesses (Count)
system.cpu1.dcache.demandAccesses::total      1160273                       # number of demand (read+write) accesses (Count)
system.cpu1.dcache.overallAccesses::cpu1.data      1160273                       # number of overall (read+write) accesses (Count)
system.cpu1.dcache.overallAccesses::total      1160273                       # number of overall (read+write) accesses (Count)
system.cpu1.dcache.demandMissRate::cpu1.data     0.000362                       # miss rate for demand accesses (Ratio)
system.cpu1.dcache.demandMissRate::total     0.000362                       # miss rate for demand accesses (Ratio)
system.cpu1.dcache.overallMissRate::cpu1.data     0.000362                       # miss rate for overall accesses (Ratio)
system.cpu1.dcache.overallMissRate::total     0.000362                       # miss rate for overall accesses (Ratio)
system.cpu1.dcache.blockedCycles::no_mshrs            0                       # number of cycles access was blocked (Cycle)
system.cpu1.dcache.blockedCycles::no_targets            0                       # number of cycles access was blocked (Cycle)
system.cpu1.dcache.blockedCauses::no_mshrs            0                       # number of times access was blocked (Count)
system.cpu1.dcache.blockedCauses::no_targets            0                       # number of times access was blocked (Count)
system.cpu1.dcache.avgBlocked::no_mshrs           nan                       # average number of cycles each access was blocked ((Cycle/Count))
system.cpu1.dcache.avgBlocked::no_targets          nan                       # average number of cycles each access was blocked ((Cycle/Count))
system.cpu1.dcache.replacements                     1                       # number of replacements (Count)
system.cpu1.dcache.LockedRMWReadReq.hits::cpu1.data         4636                       # number of LockedRMWReadReq hits (Count)
system.cpu1.dcache.LockedRMWReadReq.hits::total         4636                       # number of LockedRMWReadReq hits (Count)
system.cpu1.dcache.LockedRMWReadReq.misses::cpu1.data          397                       # number of LockedRMWReadReq misses (Count)
system.cpu1.dcache.LockedRMWReadReq.misses::total          397                       # number of LockedRMWReadReq misses (Count)
system.cpu1.dcache.LockedRMWReadReq.accesses::cpu1.data         5033                       # number of LockedRMWReadReq accesses(hits+misses) (Count)
system.cpu1.dcache.LockedRMWReadReq.accesses::total         5033                       # number of LockedRMWReadReq accesses(hits+misses) (Count)
system.cpu1.dcache.LockedRMWReadReq.missRate::cpu1.data     0.078879                       # miss rate for LockedRMWReadReq accesses (Ratio)
system.cpu1.dcache.LockedRMWReadReq.missRate::total     0.078879                       # miss rate for LockedRMWReadReq accesses (Ratio)
system.cpu1.dcache.LockedRMWWriteReq.hits::cpu1.data         5033                       # number of LockedRMWWriteReq hits (Count)
system.cpu1.dcache.LockedRMWWriteReq.hits::total         5033                       # number of LockedRMWWriteReq hits (Count)
system.cpu1.dcache.LockedRMWWriteReq.accesses::cpu1.data         5033                       # number of LockedRMWWriteReq accesses(hits+misses) (Count)
system.cpu1.dcache.LockedRMWWriteReq.accesses::total         5033                       # number of LockedRMWWriteReq accesses(hits+misses) (Count)
system.cpu1.dcache.ReadReq.hits::cpu1.data       671208                       # number of ReadReq hits (Count)
system.cpu1.dcache.ReadReq.hits::total         671208                       # number of ReadReq hits (Count)
system.cpu1.dcache.ReadReq.misses::cpu1.data           72                       # number of ReadReq misses (Count)
system.cpu1.dcache.ReadReq.misses::total           72                       # number of ReadReq misses (Count)
system.cpu1.dcache.ReadReq.accesses::cpu1.data       671280                       # number of ReadReq accesses(hits+misses) (Count)
system.cpu1.dcache.ReadReq.accesses::total       671280                       # number of ReadReq accesses(hits+misses) (Count)
system.cpu1.dcache.ReadReq.missRate::cpu1.data     0.000107                       # miss rate for ReadReq accesses (Ratio)
system.cpu1.dcache.ReadReq.missRate::total     0.000107                       # miss rate for ReadReq accesses (Ratio)
system.cpu1.dcache.WriteReq.hits::cpu1.data       488645                       # number of WriteReq hits (Count)
system.cpu1.dcache.WriteReq.hits::total        488645                       # number of WriteReq hits (Count)
system.cpu1.dcache.WriteReq.misses::cpu1.data          348                       # number of WriteReq misses (Count)
system.cpu1.dcache.WriteReq.misses::total          348                       # number of WriteReq misses (Count)
system.cpu1.dcache.WriteReq.accesses::cpu1.data       488993                       # number of WriteReq accesses(hits+misses) (Count)
system.cpu1.dcache.WriteReq.accesses::total       488993                       # number of WriteReq accesses(hits+misses) (Count)
system.cpu1.dcache.WriteReq.missRate::cpu1.data     0.000712                       # miss rate for WriteReq accesses (Ratio)
system.cpu1.dcache.WriteReq.missRate::total     0.000712                       # miss rate for WriteReq accesses (Ratio)
system.cpu1.dcache.power_state.pwrStateResidencyTicks::UNDEFINED   2410496500                       # Cumulative time (in ticks) in various power states (Tick)
system.cpu1.dcache.tags.tagsInUse          315.040740                       # Average ticks per tags in use ((Tick/Count))
system.cpu1.dcache.tags.totalRefs             1170339                       # Total number of references to valid blocks. (Count)
system.cpu1.dcache.tags.sampledRefs               781                       # Sample count of references to valid blocks. (Count)
system.cpu1.dcache.tags.avgRefs           1498.513444                       # Average number of references to valid blocks. ((Count/Count))
system.cpu1.dcache.tags.warmupTick          192245500                       # The tick when the warmup percentage was hit. (Tick)
system.cpu1.dcache.tags.occupancies::cpu1.data   315.040740                       # Average occupied blocks per tick, per requestor ((Count/Tick))
system.cpu1.dcache.tags.avgOccs::cpu1.data     0.307657                       # Average percentage of cache occupancy ((Ratio/Tick))
system.cpu1.dcache.tags.avgOccs::total       0.307657                       # Average percentage of cache occupancy ((Ratio/Tick))
system.cpu1.dcache.tags.occupanciesTaskId::1024          341                       # Occupied blocks per task id (Count)
system.cpu1.dcache.tags.ageTaskId_1024::2           11                       # Occupied blocks per task id, per block age (Count)
system.cpu1.dcache.tags.ageTaskId_1024::3          330                       # Occupied blocks per task id, per block age (Count)
system.cpu1.dcache.tags.ratioOccsTaskId::1024     0.333008                       # Ratio of occupied blocks and all blocks, per task id (Ratio)
system.cpu1.dcache.tags.tagAccesses           2341459                       # Number of tag accesses (Count)
system.cpu1.dcache.tags.dataAccesses          2341459                       # Number of data accesses (Count)
system.cpu1.dcache.tags.power_state.pwrStateResidencyTicks::UNDEFINED   2410496500                       # Cumulative time (in ticks) in various power states (Tick)
system.cpu1.dtb_walker_cache.blockedCycles::no_mshrs            0                       # number of cycles access was blocked (Cycle)
system.cpu1.dtb_walker_cache.blockedCycles::no_targets            0                       # number of cycles access was blocked (Cycle)
system.cpu1.dtb_walker_cache.blockedCauses::no_mshrs            0                       # number of times access was blocked (Count)
system.cpu1.dtb_walker_cache.blockedCauses::no_targets            0                       # number of times access was blocked (Count)
system.cpu1.dtb_walker_cache.avgBlocked::no_mshrs          nan                       # average number of cycles each access was blocked ((Cycle/Count))
system.cpu1.dtb_walker_cache.avgBlocked::no_targets          nan                       # average number of cycles each access was blocked ((Cycle/Count))
system.cpu1.dtb_walker_cache.replacements            0                       # number of replacements (Count)
system.cpu1.dtb_walker_cache.power_state.pwrStateResidencyTicks::UNDEFINED   2410496500                       # Cumulative time (in ticks) in various power states (Tick)
system.cpu1.dtb_walker_cache.tags.tagsInUse            0                       # Average ticks per tags in use ((Tick/Count))
system.cpu1.dtb_walker_cache.tags.totalRefs            0                       # Total number of references to valid blocks. (Count)
system.cpu1.dtb_walker_cache.tags.sampledRefs            0                       # Sample count of references to valid blocks. (Count)
system.cpu1.dtb_walker_cache.tags.avgRefs          nan                       # Average number of references to valid blocks. ((Count/Count))
system.cpu1.dtb_walker_cache.tags.warmupTick            0                       # The tick when the warmup percentage was hit. (Tick)
system.cpu1.dtb_walker_cache.tags.tagAccesses            0                       # Number of tag accesses (Count)
system.cpu1.dtb_walker_cache.tags.dataAccesses            0                       # Number of data accesses (Count)
system.cpu1.dtb_walker_cache.tags.power_state.pwrStateResidencyTicks::UNDEFINED   2410496500                       # Cumulative time (in ticks) in various power states (Tick)
system.cpu1.exec_context.thread_0.numMatAluAccesses            0                       # Number of matrix alu accesses (Count)
system.cpu1.exec_context.thread_0.numCallsReturns       184335                       # Number of times a function call or return occured (Count)
system.cpu1.exec_context.thread_0.numMatInsts            0                       # Number of matrix instructions (Count)
system.cpu1.exec_context.thread_0.numIdleCycles 385280.853047                       # Number of idle cycles (Cycle)
system.cpu1.exec_context.thread_0.numBusyCycles 4445779.146953                       # Number of busy cycles (Cycle)
system.cpu1.exec_context.thread_0.notIdleFraction     0.920249                       # Percentage of non-idle cycles (Ratio)
system.cpu1.exec_context.thread_0.idleFraction     0.079751                       # Percentage of idle cycles (Ratio)
system.cpu1.executeStats0.numInsts                  0                       # Number of executed instructions (Count)
system.cpu1.executeStats0.numNop                    0                       # Number of nop insts executed (Count)
system.cpu1.executeStats0.numBranches               0                       # Number of branches executed (Count)
system.cpu1.executeStats0.numLoadInsts              0                       # Number of load instructions executed (Count)
system.cpu1.executeStats0.numStoreInsts       1170345                       # Number of stores executed (Count)
system.cpu1.executeStats0.instRate                  0                       # Inst execution rate ((Count/Cycle))
system.cpu1.executeStats0.numFpAluAccesses        25396                       # Number of float alu accesses (Count)
system.cpu1.executeStats0.numFpRegReads         15487                       # Number of times the floating registers were read (Count)
system.cpu1.executeStats0.numFpRegWrites        14194                       # Number of times the floating registers were written (Count)
system.cpu1.executeStats0.numIntAluAccesses      3639234                       # Number of integer alu accesses (Count)
system.cpu1.executeStats0.numIntRegReads      4108468                       # Number of times the integer registers were read (Count)
system.cpu1.executeStats0.numIntRegWrites      2616068                       # Number of times the integer registers were written (Count)
system.cpu1.executeStats0.numMemRefs          1170345                       # Number of memory refs (Count)
system.cpu1.executeStats0.numMiscRegReads      1815605                       # Number of times the Misc registers were read (Count)
system.cpu1.executeStats0.numVecAluAccesses            0                       # Number of vector alu accesses (Count)
system.cpu1.executeStats0.numDiscardedOps            0                       # Number of ops (including micro ops) which were discarded before commit (Count)
system.cpu1.fetchStats0.numInsts              2172109                       # Number of instructions fetched (thread level) (Count)
system.cpu1.fetchStats0.numOps                3796503                       # Number of ops (including micro ops) fetched (thread level) (Count)
system.cpu1.fetchStats0.fetchRate            0.449613                       # Number of inst fetches per cycle ((Count/Cycle))
system.cpu1.fetchStats0.numBranches            358016                       # Number of branches fetched (Count)
system.cpu1.fetchStats0.branchRate           0.074107                       # Number of branch fetches per cycle (Ratio)
system.cpu1.fetchStats0.numFetchSuspends            0                       # Number of times Execute suspended instruction fetching (Count)
system.cpu1.icache.demandHits::cpu1.inst      2813130                       # number of demand (read+write) hits (Count)
system.cpu1.icache.demandHits::total          2813130                       # number of demand (read+write) hits (Count)
system.cpu1.icache.overallHits::cpu1.inst      2813130                       # number of overall hits (Count)
system.cpu1.icache.overallHits::total         2813130                       # number of overall hits (Count)
system.cpu1.icache.demandMisses::cpu1.inst         9059                       # number of demand (read+write) misses (Count)
system.cpu1.icache.demandMisses::total           9059                       # number of demand (read+write) misses (Count)
system.cpu1.icache.overallMisses::cpu1.inst         9059                       # number of overall misses (Count)
system.cpu1.icache.overallMisses::total          9059                       # number of overall misses (Count)
system.cpu1.icache.demandAccesses::cpu1.inst      2822189                       # number of demand (read+write) accesses (Count)
system.cpu1.icache.demandAccesses::total      2822189                       # number of demand (read+write) accesses (Count)
system.cpu1.icache.overallAccesses::cpu1.inst      2822189                       # number of overall (read+write) accesses (Count)
system.cpu1.icache.overallAccesses::total      2822189                       # number of overall (read+write) accesses (Count)
system.cpu1.icache.demandMissRate::cpu1.inst     0.003210                       # miss rate for demand accesses (Ratio)
system.cpu1.icache.demandMissRate::total     0.003210                       # miss rate for demand accesses (Ratio)
system.cpu1.icache.overallMissRate::cpu1.inst     0.003210                       # miss rate for overall accesses (Ratio)
system.cpu1.icache.overallMissRate::total     0.003210                       # miss rate for overall accesses (Ratio)
system.cpu1.icache.blockedCycles::no_mshrs            0                       # number of cycles access was blocked (Cycle)
system.cpu1.icache.blockedCycles::no_targets            0                       # number of cycles access was blocked (Cycle)
system.cpu1.icache.blockedCauses::no_mshrs            0                       # number of times access was blocked (Count)
system.cpu1.icache.blockedCauses::no_targets            0                       # number of times access was blocked (Count)
system.cpu1.icache.avgBlocked::no_mshrs           nan                       # average number of cycles each access was blocked ((Cycle/Count))
system.cpu1.icache.avgBlocked::no_targets          nan                       # average number of cycles each access was blocked ((Cycle/Count))
system.cpu1.icache.writebacks::writebacks         8862                       # number of writebacks (Count)
system.cpu1.icache.writebacks::total             8862                       # number of writebacks (Count)
system.cpu1.icache.replacements                  8862                       # number of replacements (Count)
system.cpu1.icache.ReadReq.hits::cpu1.inst      2813130                       # number of ReadReq hits (Count)
system.cpu1.icache.ReadReq.hits::total        2813130                       # number of ReadReq hits (Count)
system.cpu1.icache.ReadReq.misses::cpu1.inst         9059                       # number of ReadReq misses (Count)
system.cpu1.icache.ReadReq.misses::total         9059                       # number of ReadReq misses (Count)
system.cpu1.icache.ReadReq.accesses::cpu1.inst      2822189                       # number of ReadReq accesses(hits+misses) (Count)
system.cpu1.icache.ReadReq.accesses::total      2822189                       # number of ReadReq accesses(hits+misses) (Count)
system.cpu1.icache.ReadReq.missRate::cpu1.inst     0.003210                       # miss rate for ReadReq accesses (Ratio)
system.cpu1.icache.ReadReq.missRate::total     0.003210                       # miss rate for ReadReq accesses (Ratio)
system.cpu1.icache.power_state.pwrStateResidencyTicks::UNDEFINED   2410496500                       # Cumulative time (in ticks) in various power states (Tick)
system.cpu1.icache.tags.tagsInUse          180.268019                       # Average ticks per tags in use ((Tick/Count))
system.cpu1.icache.tags.totalRefs             2822189                       # Total number of references to valid blocks. (Count)
system.cpu1.icache.tags.sampledRefs              9059                       # Sample count of references to valid blocks. (Count)
system.cpu1.icache.tags.avgRefs            311.534275                       # Average number of references to valid blocks. ((Count/Count))
system.cpu1.icache.tags.warmupTick          192239000                       # The tick when the warmup percentage was hit. (Tick)
system.cpu1.icache.tags.occupancies::cpu1.inst   180.268019                       # Average occupied blocks per tick, per requestor ((Count/Tick))
system.cpu1.icache.tags.avgOccs::cpu1.inst     0.704172                       # Average percentage of cache occupancy ((Ratio/Tick))
system.cpu1.icache.tags.avgOccs::total       0.704172                       # Average percentage of cache occupancy ((Ratio/Tick))
system.cpu1.icache.tags.occupanciesTaskId::1024          197                       # Occupied blocks per task id (Count)
system.cpu1.icache.tags.ageTaskId_1024::2           24                       # Occupied blocks per task id, per block age (Count)
system.cpu1.icache.tags.ageTaskId_1024::3          173                       # Occupied blocks per task id, per block age (Count)
system.cpu1.icache.tags.ratioOccsTaskId::1024     0.769531                       # Ratio of occupied blocks and all blocks, per task id (Ratio)
system.cpu1.icache.tags.tagAccesses           5653437                       # Number of tag accesses (Count)
system.cpu1.icache.tags.dataAccesses          5653437                       # Number of data accesses (Count)
system.cpu1.icache.tags.power_state.pwrStateResidencyTicks::UNDEFINED   2410496500                       # Cumulative time (in ticks) in various power states (Tick)
system.cpu1.interrupts.clk_domain.clock          8000                       # Clock period in ticks (Tick)
system.cpu1.itb_walker_cache.blockedCycles::no_mshrs            0                       # number of cycles access was blocked (Cycle)
system.cpu1.itb_walker_cache.blockedCycles::no_targets            0                       # number of cycles access was blocked (Cycle)
system.cpu1.itb_walker_cache.blockedCauses::no_mshrs            0                       # number of times access was blocked (Count)
system.cpu1.itb_walker_cache.blockedCauses::no_targets            0                       # number of times access was blocked (Count)
system.cpu1.itb_walker_cache.avgBlocked::no_mshrs          nan                       # average number of cycles each access was blocked ((Cycle/Count))
system.cpu1.itb_walker_cache.avgBlocked::no_targets          nan                       # average number of cycles each access was blocked ((Cycle/Count))
system.cpu1.itb_walker_cache.replacements            0                       # number of replacements (Count)
system.cpu1.itb_walker_cache.power_state.pwrStateResidencyTicks::UNDEFINED   2410496500                       # Cumulative time (in ticks) in various power states (Tick)
system.cpu1.itb_walker_cache.tags.tagsInUse            0                       # Average ticks per tags in use ((Tick/Count))
system.cpu1.itb_walker_cache.tags.totalRefs            0                       # Total number of references to valid blocks. (Count)
system.cpu1.itb_walker_cache.tags.sampledRefs            0                       # Sample count of references to valid blocks. (Count)
system.cpu1.itb_walker_cache.tags.avgRefs          nan                       # Average number of references to valid blocks. ((Count/Count))
system.cpu1.itb_walker_cache.tags.warmupTick            0                       # The tick when the warmup percentage was hit. (Tick)
system.cpu1.itb_walker_cache.tags.tagAccesses            0                       # Number of tag accesses (Count)
system.cpu1.itb_walker_cache.tags.dataAccesses            0                       # Number of data accesses (Count)
system.cpu1.itb_walker_cache.tags.power_state.pwrStateResidencyTicks::UNDEFINED   2410496500                       # Cumulative time (in ticks) in various power states (Tick)
system.cpu1.mmu.dtb.rdAccesses                 676313                       # TLB accesses on read requests (Count)
system.cpu1.mmu.dtb.wrAccesses                 494032                       # TLB accesses on write requests (Count)
system.cpu1.mmu.dtb.rdMisses                       17                       # TLB misses on read requests (Count)
system.cpu1.mmu.dtb.wrMisses                       13                       # TLB misses on write requests (Count)
system.cpu1.mmu.dtb.walker.power_state.pwrStateResidencyTicks::UNDEFINED   2410496500                       # Cumulative time (in ticks) in various power states (Tick)
system.cpu1.mmu.itb.rdAccesses                      0                       # TLB accesses on read requests (Count)
system.cpu1.mmu.itb.wrAccesses                2822189                       # TLB accesses on write requests (Count)
system.cpu1.mmu.itb.rdMisses                        0                       # TLB misses on read requests (Count)
system.cpu1.mmu.itb.wrMisses                       37                       # TLB misses on write requests (Count)
system.cpu1.mmu.itb.walker.power_state.pwrStateResidencyTicks::UNDEFINED   2410496500                       # Cumulative time (in ticks) in various power states (Tick)
system.cpu1.power_state.pwrStateResidencyTicks::ON   2410496500                       # Cumulative time (in ticks) in various power states (Tick)
system.cpu1.thread_0.numInsts                       0                       # Number of Instructions committed (Count)
system.cpu1.thread_0.numOps                         0                       # Number of Ops committed (Count)
system.cpu1.thread_0.numMemRefs                     0                       # Number of Memory References (Count)
system.cpu_clk_domain.clock                       500                       # Clock period in ticks (Tick)
system.cpu_voltage_domain.voltage                   1                       # Voltage in Volts (Volt)
system.l2.demandHits::cpu0.inst                  9064                       # number of demand (read+write) hits (Count)
system.l2.demandHits::cpu0.data                    27                       # number of demand (read+write) hits (Count)
system.l2.demandHits::cpu1.inst                  9001                       # number of demand (read+write) hits (Count)
system.l2.demandHits::cpu1.data                    11                       # number of demand (read+write) hits (Count)
system.l2.demandHits::total                     18103                       # number of demand (read+write) hits (Count)
system.l2.overallHits::cpu0.inst                 9064                       # number of overall hits (Count)
system.l2.overallHits::cpu0.data                   27                       # number of overall hits (Count)
system.l2.overallHits::cpu1.inst                 9001                       # number of overall hits (Count)
system.l2.overallHits::cpu1.data                   11                       # number of overall hits (Count)
[...]
system.mem_ctrls.dram.perBankRdBursts::14            0                       # Per bank write bursts (Count)
system.mem_ctrls.dram.perBankRdBursts::15            0                       # Per bank write bursts (Count)
system.mem_ctrls.dram.perBankWrBursts::0            0                       # Per bank write bursts (Count)
system.mem_ctrls.dram.perBankWrBursts::1            0                       # Per bank write bursts (Count)
system.mem_ctrls.dram.perBankWrBursts::2            0                       # Per bank write bursts (Count)
system.mem_ctrls.dram.perBankWrBursts::3            0                       # Per bank write bursts (Count)
system.mem_ctrls.dram.perBankWrBursts::4            0                       # Per bank write bursts (Count)
system.mem_ctrls.dram.perBankWrBursts::5            0                       # Per bank write bursts (Count)
system.mem_ctrls.dram.perBankWrBursts::6            0                       # Per bank write bursts (Count)
system.mem_ctrls.dram.perBankWrBursts::7            0                       # Per bank write bursts (Count)
system.mem_ctrls.dram.perBankWrBursts::8            0                       # Per bank write bursts (Count)
system.mem_ctrls.dram.perBankWrBursts::9            0                       # Per bank write bursts (Count)
system.mem_ctrls.dram.perBankWrBursts::10            0                       # Per bank write bursts (Count)
system.mem_ctrls.dram.perBankWrBursts::11            0                       # Per bank write bursts (Count)
system.mem_ctrls.dram.perBankWrBursts::12            0                       # Per bank write bursts (Count)
system.mem_ctrls.dram.perBankWrBursts::13            0                       # Per bank write bursts (Count)
system.mem_ctrls.dram.perBankWrBursts::14            0                       # Per bank write bursts (Count)
system.mem_ctrls.dram.perBankWrBursts::15            0                       # Per bank write bursts (Count)
system.mem_ctrls.dram.totQLat                       0                       # Total ticks spent queuing (Tick)
system.mem_ctrls.dram.totBusLat                     0                       # Total ticks spent in databus transfers (Tick)
system.mem_ctrls.dram.totMemAccLat                  0                       # Total ticks spent from burst creation until serviced by the DRAM (Tick)
system.mem_ctrls.dram.avgQLat                     nan                       # Average queueing delay per DRAM burst ((Tick/Count))
system.mem_ctrls.dram.avgBusLat                   nan                       # Average bus latency per DRAM burst ((Tick/Count))
system.mem_ctrls.dram.avgMemAccLat                nan                       # Average memory access latency per DRAM burst ((Tick/Count))
system.mem_ctrls.dram.readRowHits                   0                       # Number of row buffer hits during reads (Count)
system.mem_ctrls.dram.writeRowHits                  0                       # Number of row buffer hits during writes (Count)
system.mem_ctrls.dram.readRowHitRate              nan                       # Row buffer hit rate for reads (Ratio)
system.mem_ctrls.dram.writeRowHitRate             nan                       # Row buffer hit rate for writes (Ratio)
system.mem_ctrls.dram.dramBytesRead                 0                       # Total bytes read (Byte)
system.mem_ctrls.dram.dramBytesWritten              0                       # Total bytes written (Byte)
system.mem_ctrls.dram.avgRdBW                       0                       # Average DRAM read bandwidth in MiBytes/s ((Byte/Second))
system.mem_ctrls.dram.avgWrBW                       0                       # Average DRAM write bandwidth in MiBytes/s ((Byte/Second))
system.mem_ctrls.dram.peakBW                 12800.00                       # Theoretical peak bandwidth in MiByte/s ((Byte/Second))
system.mem_ctrls.dram.busUtil                    0.00                       # Data bus utilization in percentage (Ratio)
system.mem_ctrls.dram.busUtilRead                0.00                       # Data bus utilization in percentage for reads (Ratio)
system.mem_ctrls.dram.busUtilWrite               0.00                       # Data bus utilization in percentage for writes (Ratio)
system.mem_ctrls.dram.pageHitRate                 nan                       # Row buffer hit rate, read and write combined (Ratio)
system.mem_ctrls.dram.power_state.pwrStateResidencyTicks::UNDEFINED   2410496500                       # Cumulative time (in ticks) in various power states (Tick)
system.mem_ctrls.dram.rank0.actEnergy               0                       # Energy for activate commands per rank (pJ) (Joule)
system.mem_ctrls.dram.rank0.preEnergy               0                       # Energy for precharge commands per rank (pJ) (Joule)
system.mem_ctrls.dram.rank0.readEnergy              0                       # Energy for read commands per rank (pJ) (Joule)
system.mem_ctrls.dram.rank0.writeEnergy             0                       # Energy for write commands per rank (pJ) (Joule)
system.mem_ctrls.dram.rank0.refreshEnergy            0                       # Energy for refresh commands per rank (pJ) (Joule)
system.mem_ctrls.dram.rank0.actBackEnergy            0                       # Energy for active background per rank (pJ) (Joule)
system.mem_ctrls.dram.rank0.preBackEnergy    925631040                       # Energy for precharge background per rank (pJ) (Joule)
system.mem_ctrls.dram.rank0.actPowerDownEnergy            0                       # Energy for active power-down per rank (pJ) (Joule)
system.mem_ctrls.dram.rank0.prePowerDownEnergy            0                       # Energy for precharge power-down per rank (pJ) (Joule)
system.mem_ctrls.dram.rank0.selfRefreshEnergy            0                       # Energy for self refresh per rank (pJ) (Joule)
system.mem_ctrls.dram.rank0.totalEnergy     925631040                       # Total energy per rank (pJ) (Joule)
system.mem_ctrls.dram.rank0.averagePower   384.000159                       # Core power per rank (mW) (Watt)
system.mem_ctrls.dram.rank0.totalIdleTime            0                       # Total Idle time Per DRAM Rank (Tick)
system.mem_ctrls.dram.rank0.pwrStateTime::IDLE   2410496500                       # Time in different power states (Tick)
system.mem_ctrls.dram.rank0.pwrStateTime::REF            0                       # Time in different power states (Tick)
system.mem_ctrls.dram.rank0.pwrStateTime::SREF            0                       # Time in different power states (Tick)
system.mem_ctrls.dram.rank0.pwrStateTime::PRE_PDN            0                       # Time in different power states (Tick)
system.mem_ctrls.dram.rank0.pwrStateTime::ACT            0                       # Time in different power states (Tick)
system.mem_ctrls.dram.rank0.pwrStateTime::ACT_PDN            0                       # Time in different power states (Tick)
system.mem_ctrls.dram.rank1.actEnergy               0                       # Energy for activate commands per rank (pJ) (Joule)
system.mem_ctrls.dram.rank1.preEnergy               0                       # Energy for precharge commands per rank (pJ) (Joule)
system.mem_ctrls.dram.rank1.readEnergy              0                       # Energy for read commands per rank (pJ) (Joule)
system.mem_ctrls.dram.rank1.writeEnergy             0                       # Energy for write commands per rank (pJ) (Joule)
system.mem_ctrls.dram.rank1.refreshEnergy            0                       # Energy for refresh commands per rank (pJ) (Joule)
system.mem_ctrls.dram.rank1.actBackEnergy            0                       # Energy for active background per rank (pJ) (Joule)
system.mem_ctrls.dram.rank1.preBackEnergy    925631040                       # Energy for precharge background per rank (pJ) (Joule)
system.mem_ctrls.dram.rank1.actPowerDownEnergy            0                       # Energy for active power-down per rank (pJ) (Joule)
system.mem_ctrls.dram.rank1.prePowerDownEnergy            0                       # Energy for precharge power-down per rank (pJ) (Joule)
system.mem_ctrls.dram.rank1.selfRefreshEnergy            0                       # Energy for self refresh per rank (pJ) (Joule)
system.mem_ctrls.dram.rank1.totalEnergy     925631040                       # Total energy per rank (pJ) (Joule)
system.mem_ctrls.dram.rank1.averagePower   384.000159                       # Core power per rank (mW) (Watt)
system.mem_ctrls.dram.rank1.totalIdleTime            0                       # Total Idle time Per DRAM Rank (Tick)
system.mem_ctrls.dram.rank1.pwrStateTime::IDLE   2410496500                       # Time in different power states (Tick)
system.mem_ctrls.dram.rank1.pwrStateTime::REF            0                       # Time in different power states (Tick)
system.mem_ctrls.dram.rank1.pwrStateTime::SREF            0                       # Time in different power states (Tick)
system.mem_ctrls.dram.rank1.pwrStateTime::PRE_PDN            0                       # Time in different power states (Tick)
system.mem_ctrls.dram.rank1.pwrStateTime::ACT            0                       # Time in different power states (Tick)
system.mem_ctrls.dram.rank1.pwrStateTime::ACT_PDN            0                       # Time in different power states (Tick)
system.mem_ctrls.power_state.pwrStateResidencyTicks::UNDEFINED   2410496500                       # Cumulative time (in ticks) in various power states (Tick)
system.membus.transDist::ReadResp                1689                       # Transaction distribution (Count)
system.membus.transDist::CleanEvict                10                       # Transaction distribution (Count)
system.membus.transDist::UpgradeReq                70                       # Transaction distribution (Count)
system.membus.transDist::ReadExReq                985                       # Transaction distribution (Count)
system.membus.transDist::ReadExResp               985                       # Transaction distribution (Count)
system.membus.transDist::ReadSharedReq           1689                       # Transaction distribution (Count)
system.membus.pktCount_system.l2.mem_side_port::system.mem_ctrls.port         5428                       # Packet count per connected requestor and responder (Count)
system.membus.pktCount_system.l2.mem_side_port::total         5428                       # Packet count per connected requestor and responder (Count)
system.membus.pktCount::total                    5428                       # Packet count per connected requestor and responder (Count)
system.membus.pktSize_system.l2.mem_side_port::system.mem_ctrls.port       171136                       # Cumulative packet size per connected requestor and responder (Byte)
system.membus.pktSize_system.l2.mem_side_port::total       171136                       # Cumulative packet size per connected requestor and responder (Byte)
system.membus.pktSize::total                   171136                       # Cumulative packet size per connected requestor and responder (Byte)
system.membus.snoops                                0                       # Total snoops (Count)
system.membus.snoopTraffic                          0                       # Total snoop traffic (Byte)
system.membus.snoopFanout::samples               2744                       # Request fanout histogram (Count)
system.membus.snoopFanout::mean                     0                       # Request fanout histogram (Count)
system.membus.snoopFanout::stdev                    0                       # Request fanout histogram (Count)
system.membus.snoopFanout::underflows               0      0.00%      0.00% # Request fanout histogram (Count)
system.membus.snoopFanout::0                     2744    100.00%    100.00% # Request fanout histogram (Count)
system.membus.snoopFanout::1                        0      0.00%    100.00% # Request fanout histogram (Count)
system.membus.snoopFanout::overflows                0      0.00%    100.00% # Request fanout histogram (Count)
system.membus.snoopFanout::min_value                0                       # Request fanout histogram (Count)
system.membus.snoopFanout::max_value                0                       # Request fanout histogram (Count)
system.membus.snoopFanout::total                 2744                       # Request fanout histogram (Count)
system.membus.power_state.pwrStateResidencyTicks::UNDEFINED   2410496500                       # Cumulative time (in ticks) in various power states (Tick)
system.membus.snoop_filter.totRequests           2754                       # Total number of requests made to the snoop filter. (Count)
system.membus.snoop_filter.hitSingleRequests           80                       # Number of requests hitting in the snoop filter with a single holder of the requested data. (Count)
system.membus.snoop_filter.hitMultiRequests            0                       # Number of requests hitting in the snoop filter with multiple (>1) holders of the requested data. (Count)
system.membus.snoop_filter.totSnoops                0                       # Total number of snoops made to the snoop filter. (Count)
system.membus.snoop_filter.hitSingleSnoops            0                       # Number of snoops hitting in the snoop filter with a single holder of the requested data. (Count)
system.membus.snoop_filter.hitMultiSnoops            0                       # Number of snoops hitting in the snoop filter with multiple (>1) holders of the requested data. (Count)
system.tol2bus.transDist::ReadResp              19888                       # Transaction distribution (Count)
system.tol2bus.transDist::WritebackDirty          105                       # Transaction distribution (Count)
system.tol2bus.transDist::WritebackClean        19062                       # Transaction distribution (Count)
system.tol2bus.transDist::CleanEvict               42                       # Transaction distribution (Count)
system.tol2bus.transDist::UpgradeReq               82                       # Transaction distribution (Count)
system.tol2bus.transDist::UpgradeResp              82                       # Transaction distribution (Count)
system.tol2bus.transDist::ReadExReq              1782                       # Transaction distribution (Count)
system.tol2bus.transDist::ReadExResp             1782                       # Transaction distribution (Count)
system.tol2bus.transDist::ReadCleanReq          19515                       # Transaction distribution (Count)
system.tol2bus.transDist::ReadSharedReq           373                       # Transaction distribution (Count)
system.tol2bus.pktCount_system.cpu0.icache.mem_side_port::system.l2.cpu_side_port        31112                       # Packet count per connected requestor and responder (Count)
system.tol2bus.pktCount_system.cpu0.dcache.mem_side_port::system.l2.cpu_side_port         2986                       # Packet count per connected requestor and responder (Count)
system.tol2bus.pktCount_system.cpu1.icache.mem_side_port::system.l2.cpu_side_port        26980                       # Packet count per connected requestor and responder (Count)
system.tol2bus.pktCount_system.cpu1.dcache.mem_side_port::system.l2.cpu_side_port         1635                       # Packet count per connected requestor and responder (Count)
system.tol2bus.pktCount::total                  62713                       # Packet count per connected requestor and responder (Count)
system.tol2bus.pktSize_system.cpu0.icache.mem_side_port::system.l2.cpu_side_port      1321984                       # Cumulative packet size per connected requestor and responder (Byte)
system.tol2bus.pktSize_system.cpu0.dcache.mem_side_port::system.l2.cpu_side_port        94656                       # Cumulative packet size per connected requestor and responder (Byte)
system.tol2bus.pktSize_system.cpu1.icache.mem_side_port::system.l2.cpu_side_port      1146944                       # Cumulative packet size per connected requestor and responder (Byte)
system.tol2bus.pktSize_system.cpu1.dcache.mem_side_port::system.l2.cpu_side_port        49984                       # Cumulative packet size per connected requestor and responder (Byte)
system.tol2bus.pktSize::total                 2613568                       # Cumulative packet size per connected requestor and responder (Byte)
system.tol2bus.snoops                              17                       # Total snoops (Count)
system.tol2bus.snoopTraffic                         0                       # Total snoop traffic (Byte)
system.tol2bus.snoopFanout::samples             21769                       # Request fanout histogram (Count)
system.tol2bus.snoopFanout::mean             0.510864                       # Request fanout histogram (Count)
system.tol2bus.snoopFanout::stdev            0.499893                       # Request fanout histogram (Count)
system.tol2bus.snoopFanout::underflows              0      0.00%      0.00% # Request fanout histogram (Count)
system.tol2bus.snoopFanout::0                   10648     48.91%     48.91% # Request fanout histogram (Count)
system.tol2bus.snoopFanout::1                   11121     51.09%    100.00% # Request fanout histogram (Count)
system.tol2bus.snoopFanout::2                       0      0.00%    100.00% # Request fanout histogram (Count)
system.tol2bus.snoopFanout::3                       0      0.00%    100.00% # Request fanout histogram (Count)
system.tol2bus.snoopFanout::4                       0      0.00%    100.00% # Request fanout histogram (Count)
system.tol2bus.snoopFanout::5                       0      0.00%    100.00% # Request fanout histogram (Count)
system.tol2bus.snoopFanout::6                       0      0.00%    100.00% # Request fanout histogram (Count)
system.tol2bus.snoopFanout::7                       0      0.00%    100.00% # Request fanout histogram (Count)
system.tol2bus.snoopFanout::8                       0      0.00%    100.00% # Request fanout histogram (Count)
system.tol2bus.snoopFanout::overflows               0      0.00%    100.00% # Request fanout histogram (Count)
system.tol2bus.snoopFanout::min_value               0                       # Request fanout histogram (Count)
system.tol2bus.snoopFanout::max_value               1                       # Request fanout histogram (Count)
system.tol2bus.snoopFanout::total               21769                       # Request fanout histogram (Count)
system.tol2bus.power_state.pwrStateResidencyTicks::UNDEFINED   2410496500                       # Cumulative time (in ticks) in various power states (Tick)
system.tol2bus.snoop_filter.totRequests         40961                       # Total number of requests made to the snoop filter. (Count)
system.tol2bus.snoop_filter.hitSingleRequests        20210                       # Number of requests hitting in the snoop filter with a single holder of the requested data. (Count)
system.tol2bus.snoop_filter.hitMultiRequests        10112                       # Number of requests hitting in the snoop filter with multiple (>1) holders of the requested data. (Count)
system.tol2bus.snoop_filter.totSnoops               8                       # Total number of snoops made to the snoop filter. (Count)
system.tol2bus.snoop_filter.hitSingleSnoops            8                       # Number of snoops hitting in the snoop filter with a single holder of the requested data. (Count)
system.tol2bus.snoop_filter.hitMultiSnoops            0                       # Number of snoops hitting in the snoop filter with multiple (>1) holders of the requested data. (Count)
system.voltage_domain.voltage                       1                       # Voltage in Volts (Volt)
system.workload.inst.arm                            0                       # number of arm instructions executed (Count)
system.workload.inst.quiesce                        0                       # number of quiesce instructions executed (Count)

---------- End Simulation Statistics   ----------
