
---------- Begin Simulation Statistics ----------
simSeconds                                   0.002413                       # Number of seconds simulated (Second)
simTicks                                   2412773500                       # Number of ticks simulated (Tick)
finalTick                                  2412773500                       # Number of ticks from beginning of simulation (restored from checkpoints and never reset) (Tick)
simFreq                                  1000000000000                       # The number of ticks per simulated second ((Tick/Second))
hostSeconds                                     26.31                       # Real time elapsed on the host (Second)
hostTickRate                                 91698699                       # The number of ticks simulated per host second (ticks/s) ((Tick/Second))
hostMemory                                     756040                       # Number of bytes of host memory used (Byte)
simInsts                                      9005919                       # Number of instructions simulated (Count)
simOps                                       15606736                       # Number of ops (including micro ops) simulated (Count)
hostInstRate                                   342273                       # Simulator instruction rate (inst/s) ((Count/Second))
hostOpRate                                     593138                       # Simulator op (including micro ops) rate (op/s) ((Count/Second))
system.clk_domain.clock                          1000                       # Clock period in ticks (Tick)
system.cpu0.numCycles                         4829823                       # Number of cpu cycles simulated (Cycle)
system.cpu0.cpi                              1.991586                       # CPI: cycles per instruction (core level) ((Cycle/Count))
system.cpu0.ipc                              0.502112                       # IPC: instructions per cycle (core level) ((Count/Cycle))
system.cpu0.numWorkItemsStarted                     0                       # Number of work items this cpu started (Count)
system.cpu0.numWorkItemsCompleted                   0                       # Number of work items this cpu completed (Count)
system.cpu0.commitStats0.numInsts             2425114                       # Number of instructions committed (thread level) (Count)
system.cpu0.commitStats0.numOps               4178017                       # Number of ops (including micro ops) committed (thread level) (Count)
system.cpu0.commitStats0.numInstsNotNOP             0                       # Number of instructions committed excluding NOPs or prefetches (Count)
system.cpu0.commitStats0.numOpsNotNOP               0                       # Number of Ops (including micro ops) Simulated (Count)
system.cpu0.commitStats0.cpi                 1.991586                       # CPI: cycles per instruction (thread level) ((Cycle/Count))
system.cpu0.commitStats0.ipc                 0.502112                       # IPC: instructions per cycle (thread level) ((Count/Cycle))
system.cpu0.commitStats0.numMemRefs                 0                       # Number of memory references committed (Count)
system.cpu0.commitStats0.numFpInsts             15636                       # Number of float instructions (Count)
system.cpu0.commitStats0.numIntInsts          3853664                       # Number of integer instructions (Count)
system.cpu0.commitStats0.numLoadInsts          407738                       # Number of load instructions (Count)
system.cpu0.commitStats0.numStoreInsts          62801                       # Number of store instructions (Count)
system.cpu0.commitStats0.numVecInsts                0                       # Number of vector instructions (Count)
system.cpu0.commitStats0.committedInstType::No_OpClass        12378      0.30%      0.30% # Class of committed instruction. (Count)
system.cpu0.commitStats0.committedInstType::IntAlu      3683733     88.17%     88.47% # Class of committed instruction. (Count)
system.cpu0.commitStats0.committedInstType::IntMult         2142      0.05%     88.52% # Class of committed instruction. (Count)
system.cpu0.commitStats0.committedInstType::IntDiv           49      0.00%     88.52% # Class of committed instruction. (Count)
system.cpu0.commitStats0.committedInstType::FloatAdd         3628      0.09%     88.60% # Class of committed instruction. (Count)
system.cpu0.commitStats0.committedInstType::FloatCmp            0      0.00%     88.60% # Class of committed instruction. (Count)
system.cpu0.commitStats0.committedInstType::FloatCvt            0      0.00%     88.60% # Class of committed instruction. (Count)
system.cpu0.commitStats0.committedInstType::FloatMult            0      0.00%     88.60% # Class of committed instruction. (Count)
system.cpu0.commitStats0.committedInstType::FloatMultAcc            0      0.00%     88.60% # Class of committed instruction. (Count)
system.cpu0.commitStats0.committedInstType::FloatDiv            0      0.00%     88.60% # Class of committed instruction. (Count)
system.cpu0.commitStats0.committedInstType::FloatMisc            0      0.00%     88.60% # Class of committed instruction. (Count)
system.cpu0.commitStats0.committedInstType::FloatSqrt            0      0.00%     88.60% # Class of committed instruction. (Count)
system.cpu0.commitStats0.committedInstType::SimdAdd           24      0.00%     88.61% # Class of committed instruction. (Count)
system.cpu0.commitStats0.committedInstType::SimdAddAcc            0      0.00%     88.61% # Class of committed instruction. (Count)
system.cpu0.commitStats0.committedInstType::SimdAlu          940      0.02%     88.63% # Class of committed instruction. (Count)
system.cpu0.commitStats0.committedInstType::SimdCmp            6      0.00%     88.63% # Class of committed instruction. (Count)
system.cpu0.commitStats0.committedInstType::SimdCvt          418      0.01%     88.64% # Class of committed instruction. (Count)
system.cpu0.commitStats0.committedInstType::SimdMisc         4160      0.10%     88.74% # Class of committed instruction. (Count)
system.cpu0.commitStats0.committedInstType::SimdMult            0      0.00%     88.74% # Class of committed instruction. (Count)
system.cpu0.commitStats0.committedInstType::SimdMultAcc            0      0.00%     88.74% # Class of committed instruction. (Count)
system.cpu0.commitStats0.committedInstType::SimdMatMultAcc            0      0.00%     88.74% # Class of committed instruction. (Count)
system.cpu0.commitStats0.committedInstType::SimdShift            0      0.00%     88.74% # Class of committed instruction. (Count)
system.cpu0.commitStats0.committedInstType::SimdShiftAcc            0      0.00%     88.74% # Class of committed instruction. (Count)
system.cpu0.commitStats0.committedInstType::SimdDiv            0      0.00%     88.74% # Class of committed instruction. (Count)
system.cpu0.commitStats0.committedInstType::SimdSqrt            0      0.00%     88.74% # Class of committed instruction. (Count)
system.cpu0.commitStats0.committedInstType::SimdFloatAdd            0      0.00%     88.74% # Class of committed instruction. (Count)
system.cpu0.commitStats0.committedInstType::SimdFloatAlu            0      0.00%     88.74% # Class of committed instruction. (Count)
system.cpu0.commitStats0.committedInstType::SimdFloatCmp            0      0.00%     88.74% # Class of committed instruction. (Count)
system.cpu0.commitStats0.committedInstType::SimdFloatCvt            0      0.00%     88.74% # Class of committed instruction. (Count)
system.cpu0.commitStats0.committedInstType::SimdFloatDiv            0      0.00%     88.74% # Class of committed instruction. (Count)
system.cpu0.commitStats0.committedInstType::SimdFloatMisc            0      0.00%     88.74% # Class of committed instruction. (Count)
system.cpu0.commitStats0.committedInstType::SimdFloatMult            0      0.00%     88.74% # Class of committed instruction. (Count)
system.cpu0.commitStats0.committedInstType::SimdFloatMultAcc            0      0.00%     88.74% # Class of committed instruction. (Count)
system.cpu0.commitStats0.committedInstType::SimdFloatMatMultAcc            0      0.00%     88.74% # Class of committed instruction. (Count)
system.cpu0.commitStats0.committedInstType::SimdFloatSqrt            0      0.00%     88.74% # Class of committed instruction. (Count)
system.cpu0.commitStats0.committedInstType::SimdReduceAdd            0      0.00%     88.74% # Class of committed instruction. (Count)
system.cpu0.commitStats0.committedInstType::SimdReduceAlu            0      0.00%     88.74% # Class of committed instruction. (Count)
system.cpu0.commitStats0.committedInstType::SimdReduceCmp            0      0.00%     88.74% # Class of committed instruction. (Count)
system.cpu0.commitStats0.committedInstType::SimdFloatReduceAdd            0      0.00%     88.74% # Class of committed instruction. (Count)
system.cpu0.commitStats0.committedInstType::SimdFloatReduceCmp            0      0.00%     88.74% # Class of committed instruction. (Count)
system.cpu0.commitStats0.committedInstType::SimdAes            0      0.00%     88.74% # Class of committed instruction. (Count)
system.cpu0.commitStats0.committedInstType::SimdAesMix            0      0.00%     88.74% # Class of committed instruction. (Count)
system.cpu0.commitStats0.committedInstType::SimdSha1Hash            0      0.00%     88.74% # Class of committed instruction. (Count)
system.cpu0.commitStats0.committedInstType::SimdSha1Hash2            0      0.00%     88.74% # Class of committed instruction. (Count)
system.cpu0.commitStats0.committedInstType::SimdSha256Hash            0      0.00%     88.74% # Class of committed instruction. (Count)
system.cpu0.commitStats0.committedInstType::SimdSha256Hash2            0      0.00%     88.74% # Class of committed instruction. (Count)
system.cpu0.commitStats0.committedInstType::SimdShaSigma2            0      0.00%     88.74% # Class of committed instruction. (Count)
system.cpu0.commitStats0.committedInstType::SimdShaSigma3            0      0.00%     88.74% # Class of committed instruction. (Count)
system.cpu0.commitStats0.committedInstType::SimdPredAlu            0      0.00%     88.74% # Class of committed instruction. (Count)
system.cpu0.commitStats0.committedInstType::Matrix            0      0.00%     88.74% # Class of committed instruction. (Count)
system.cpu0.commitStats0.committedInstType::MatrixMov            0      0.00%     88.74% # Class of committed instruction. (Count)
system.cpu0.commitStats0.committedInstType::MatrixOP            0      0.00%     88.74% # Class of committed instruction. (Count)
system.cpu0.commitStats0.committedInstType::MemRead       406943      9.74%     98.48% # Class of committed instruction. (Count)
system.cpu0.commitStats0.committedInstType::MemWrite        59105      1.41%     99.89% # Class of committed instruction. (Count)
system.cpu0.commitStats0.committedInstType::FloatMemRead          795      0.02%     99.91% # Class of committed instruction. (Count)
system.cpu0.commitStats0.committedInstType::FloatMemWrite         3696      0.09%    100.00% # Class of committed instruction. (Count)
system.cpu0.commitStats0.committedInstType::IprAccess            0      0.00%    100.00% # Class of committed instruction. (Count)
system.cpu0.commitStats0.committedInstType::InstPrefetch            0      0.00%    100.00% # Class of committed instruction. (Count)
system.cpu0.commitStats0.committedInstType::SimdUnitStrideLoad            0      0.00%    100.00% # Class of committed instruction. (Count)
system.cpu0.commitStats0.committedInstType::SimdUnitStrideStore            0      0.00%    100.00% # Class of committed instruction. (Count)
system.cpu0.commitStats0.committedInstType::SimdUnitStrideMaskLoad            0      0.00%    100.00% # Class of committed instruction. (Count)
system.cpu0.commitStats0.committedInstType::SimdUnitStrideMaskStore            0      0.00%    100.00% # Class of committed instruction. (Count)
system.cpu0.commitStats0.committedInstType::SimdStridedLoad            0      0.00%    100.00% # Class of committed instruction. (Count)
system.cpu0.commitStats0.committedInstType::SimdStridedStore            0      0.00%    100.00% # Class of committed instruction. (Count)
system.cpu0.commitStats0.committedInstType::SimdIndexedLoad            0      0.00%    100.00% # Class of committed instruction. (Count)
system.cpu0.commitStats0.committedInstType::SimdIndexedStore            0      0.00%    100.00% # Class of committed instruction. (Count)
system.cpu0.commitStats0.committedInstType::SimdWholeRegisterLoad            0      0.00%    100.00% # Class of committed instruction. (Count)
system.cpu0.commitStats0.committedInstType::SimdWholeRegisterStore            0      0.00%    100.00% # Class of committed instruction. (Count)
system.cpu0.commitStats0.committedInstType::SimdUnitStrideFaultOnlyFirstLoad            0      0.00%    100.00% # Class of committed instruction. (Count)
system.cpu0.commitStats0.committedInstType::SimdUnitStrideSegmentedLoad            0      0.00%    100.00% # Class of committed instruction. (Count)
system.cpu0.commitStats0.committedInstType::SimdUnitStrideSegmentedStore            0      0.00%    100.00% # Class of committed instruction. (Count)
system.cpu0.commitStats0.committedInstType::SimdUnitStrideSegmentedFaultOnlyFirstLoad            0      0.00%    100.00% # Class of committed instruction. (Count)
system.cpu0.commitStats0.committedInstType::SimdStrideSegmentedLoad            0      0.00%    100.00% # Class of committed instruction. (Count)
system.cpu0.commitStats0.committedInstType::SimdStrideSegmentedStore            0      0.00%    100.00% # Class of committed instruction. (Count)
system.cpu0.commitStats0.committedInstType::SimdExt            0      0.00%    100.00% # Class of committed instruction. (Count)
system.cpu0.commitStats0.committedInstType::SimdFloatExt            0      0.00%    100.00% # Class of committed instruction. (Count)
system.cpu0.commitStats0.committedInstType::SimdConfig            0      0.00%    100.00% # Class of committed instruction. (Count)
system.cpu0.commitStats0.committedInstType::total      4178017                       # Class of committed instruction. (Count)
system.cpu0.commitStats0.committedControl::IsControl       654363                       # Class of control type instructions committed (Count)
system.cpu0.commitStats0.committedControl::IsDirectControl       641898                       # Class of control type instructions committed (Count)
system.cpu0.commitStats0.committedControl::IsIndirectControl        12465                       # Class of control type instructions committed (Count)
system.cpu0.commitStats0.committedControl::IsCondControl       628307                       # Class of control type instructions committed (Count)
system.cpu0.commitStats0.committedControl::IsUncondControl        26056                       # Class of control type instructions committed (Count)
system.cpu0.commitStats0.committedControl::IsCall        11938                       # Class of control type instructions committed (Count)
system.cpu0.commitStats0.committedControl::IsReturn        11933                       # Class of control type instructions committed (Count)
system.cpu0.dcache.demandHits::cpu0.data       465347                       # number of demand (read+write) hits (Count)
system.cpu0.dcache.demandHits::total           465347                       # number of demand (read+write) hits (Count)
system.cpu0.dcache.overallHits::cpu0.data       465347                       # number of overall hits (Count)
system.cpu0.dcache.overallHits::total          465347                       # number of overall hits (Count)
system.cpu0.dcache.demandMisses::cpu0.data          948                       # number of demand (read+write) misses (Count)
system.cpu0.dcache.demandMisses::total            948                       # number of demand (read+write) misses (Count)
system.cpu0.dcache.overallMisses::cpu0.data          948                       # number of overall misses (Count)
system.cpu0.dcache.overallMisses::total           948                       # number of overall misses (Count)
system.cpu0.dcache.demandAccesses::cpu0.data       466295                       # number of demand (read+write) accesses (Count)
system.cpu0.dcache.demandAccesses::total       466295                       # number of demand (read+write) accesses (Count)
system.cpu0.dcache.overallAccesses::cpu0.data       466295                       # number of overall (read+write) accesses (Count)
system.cpu0.dcache.overallAccesses::total       466295                       # number of overall (read+write) accesses (Count)
system.cpu0.dcache.demandMissRate::cpu0.data     0.002033                       # miss rate for demand accesses (Ratio)
system.cpu0.dcache.demandMissRate::total     0.002033                       # miss rate for demand accesses (Ratio)
system.cpu0.dcache.overallMissRate::cpu0.data     0.002033                       # miss rate for overall accesses (Ratio)
system.cpu0.dcache.overallMissRate::total     0.002033                       # miss rate for overall accesses (Ratio)
system.cpu0.dcache.blockedCycles::no_mshrs            0                       # number of cycles access was blocked (Cycle)
system.cpu0.dcache.blockedCycles::no_targets            0                       # number of cycles access was blocked (Cycle)
system.cpu0.dcache.blockedCauses::no_mshrs            0                       # number of times access was blocked (Count)
system.cpu0.dcache.blockedCauses::no_targets            0                       # number of times access was blocked (Count)
system.cpu0.dcache.avgBlocked::no_mshrs           nan                       # average number of cycles each access was blocked ((Cycle/Count))
system.cpu0.dcache.avgBlocked::no_targets          nan                       # average number of cycles each access was blocked ((Cycle/Count))
system.cpu0.dcache.writebacks::writebacks           56                       # number of writebacks (Count)
system.cpu0.dcache.writebacks::total               56                       # number of writebacks (Count)
system.cpu0.dcache.replacements                    90                       # number of replacements (Count)
system.cpu0.dcache.LockedRMWReadReq.hits::cpu0.data         2126                       # number of LockedRMWReadReq hits (Count)
system.cpu0.dcache.LockedRMWReadReq.hits::total         2126                       # number of LockedRMWReadReq hits (Count)
system.cpu0.dcache.LockedRMWReadReq.misses::cpu0.data            8                       # number of LockedRMWReadReq misses (Count)
system.cpu0.dcache.LockedRMWReadReq.misses::total            8                       # number of LockedRMWReadReq misses (Count)
system.cpu0.dcache.LockedRMWReadReq.accesses::cpu0.data         2134                       # number of LockedRMWReadReq accesses(hits+misses) (Count)
system.cpu0.dcache.LockedRMWReadReq.accesses::total         2134                       # number of LockedRMWReadReq accesses(hits+misses) (Count)
system.cpu0.dcache.LockedRMWReadReq.missRate::cpu0.data     0.003749                       # miss rate for LockedRMWReadReq accesses (Ratio)
system.cpu0.dcache.LockedRMWReadReq.missRate::total     0.003749                       # miss rate for LockedRMWReadReq accesses (Ratio)
system.cpu0.dcache.LockedRMWWriteReq.hits::cpu0.data         2134                       # number of LockedRMWWriteReq hits (Count)
system.cpu0.dcache.LockedRMWWriteReq.hits::total         2134                       # number of LockedRMWWriteReq hits (Count)
system.cpu0.dcache.LockedRMWWriteReq.accesses::cpu0.data         2134                       # number of LockedRMWWriteReq accesses(hits+misses) (Count)
system.cpu0.dcache.LockedRMWWriteReq.accesses::total         2134                       # number of LockedRMWWriteReq accesses(hits+misses) (Count)
system.cpu0.dcache.ReadReq.hits::cpu0.data       405310                       # number of ReadReq hits (Count)
system.cpu0.dcache.ReadReq.hits::total         405310                       # number of ReadReq hits (Count)
system.cpu0.dcache.ReadReq.misses::cpu0.data          321                       # number of ReadReq misses (Count)
system.cpu0.dcache.ReadReq.misses::total          321                       # number of ReadReq misses (Count)
system.cpu0.dcache.ReadReq.accesses::cpu0.data       405631                       # number of ReadReq accesses(hits+misses) (Count)
system.cpu0.dcache.ReadReq.accesses::total       405631                       # number of ReadReq accesses(hits+misses) (Count)
system.cpu0.dcache.ReadReq.missRate::cpu0.data     0.000791                       # miss rate for ReadReq accesses (Ratio)
system.cpu0.dcache.ReadReq.missRate::total     0.000791                       # miss rate for ReadReq accesses (Ratio)
system.cpu0.dcache.WriteReq.hits::cpu0.data        60037                       # number of WriteReq hits (Count)
system.cpu0.dcache.WriteReq.hits::total         60037                       # number of WriteReq hits (Count)
system.cpu0.dcache.WriteReq.misses::cpu0.data          627                       # number of WriteReq misses (Count)
system.cpu0.dcache.WriteReq.misses::total          627                       # number of WriteReq misses (Count)
system.cpu0.dcache.WriteReq.accesses::cpu0.data        60664                       # number of WriteReq accesses(hits+misses) (Count)
system.cpu0.dcache.WriteReq.accesses::total        60664                       # number of WriteReq accesses(hits+misses) (Count)
system.cpu0.dcache.WriteReq.missRate::cpu0.data     0.010336                       # miss rate for WriteReq accesses (Ratio)
system.cpu0.dcache.WriteReq.missRate::total     0.010336                       # miss rate for WriteReq accesses (Ratio)
system.cpu0.dcache.power_state.pwrStateResidencyTicks::UNDEFINED   2412773500                       # Cumulative time (in ticks) in various power states (Tick)
system.cpu0.dcache.tags.tagsInUse          586.021577                       # Average ticks per tags in use ((Tick/Count))
system.cpu0.dcache.tags.totalRefs              470563                       # Total number of references to valid blocks. (Count)
system.cpu0.dcache.tags.sampledRefs               876                       # Sample count of references to valid blocks. (Count)
system.cpu0.dcache.tags.avgRefs            537.172374                       # Average number of references to valid blocks. ((Count/Count))
system.cpu0.dcache.tags.warmupTick               2000                       # The tick when the warmup percentage was hit. (Tick)
system.cpu0.dcache.tags.occupancies::cpu0.data   586.021577                       # Average occupied blocks per tick, per requestor ((Count/Tick))
system.cpu0.dcache.tags.avgOccs::cpu0.data     0.572287                       # Average percentage of cache occupancy ((Ratio/Tick))
system.cpu0.dcache.tags.avgOccs::total       0.572287                       # Average percentage of cache occupancy ((Ratio/Tick))
system.cpu0.dcache.tags.occupanciesTaskId::1024          683                       # Occupied blocks per task id (Count)
system.cpu0.dcache.tags.ageTaskId_1024::0           13                       # Occupied blocks per task id, per block age (Count)
system.cpu0.dcache.tags.ageTaskId_1024::1           26                       # Occupied blocks per task id, per block age (Count)
system.cpu0.dcache.tags.ageTaskId_1024::2          106                       # Occupied blocks per task id, per block age (Count)
system.cpu0.dcache.tags.ageTaskId_1024::3          538                       # Occupied blocks per task id, per block age (Count)
system.cpu0.dcache.tags.ratioOccsTaskId::1024     0.666992                       # Ratio of occupied blocks and all blocks, per task id (Ratio)
system.cpu0.dcache.tags.tagAccesses            942002                       # Number of tag accesses (Count)
system.cpu0.dcache.tags.dataAccesses           942002                       # Number of data accesses (Count)
system.cpu0.dcache.tags.power_state.pwrStateResidencyTicks::UNDEFINED   2412773500                       # Cumulative time (in ticks) in various power states (Tick)
system.cpu0.dtb_walker_cache.blockedCycles::no_mshrs            0                       # number of cycles access was blocked (Cycle)
system.cpu0.dtb_walker_cache.blockedCycles::no_targets            0                       # number of cycles access was blocked (Cycle)
system.cpu0.dtb_walker_cache.blockedCauses::no_mshrs            0                       # number of times access was blocked (Count)
system.cpu0.dtb_walker_cache.blockedCauses::no_targets            0                       # number of times access was blocked (Count)
system.cpu0.dtb_walker_cache.avgBlocked::no_mshrs          nan                       # average number of cycles each access was blocked ((Cycle/Count))
system.cpu0.dtb_walker_cache.avgBlocked::no_targets          nan                       # average number of cycles each access was blocked ((Cycle/Count))
system.cpu0.dtb_walker_cache.replacements            0                       # number of replacements (Count)
system.cpu0.dtb_walker_cache.power_state.pwrStateResidencyTicks::UNDEFINED   2412773500                       # Cumulative time (in ticks) in various power states (Tick)
system.cpu0.dtb_walker_cache.tags.tagsInUse            0                       # Average ticks per tags in use ((Tick/Count))
system.cpu0.dtb_walker_cache.tags.totalRefs            0                       # Total number of references to valid blocks. (Count)
system.cpu0.dtb_walker_cache.tags.sampledRefs            0                       # Sample count of references to valid blocks. (Count)
system.cpu0.dtb_walker_cache.tags.avgRefs          nan                       # Average number of references to valid blocks. ((Count/Count))
system.cpu0.dtb_walker_cache.tags.warmupTick            0                       # The tick when the warmup percentage was hit. (Tick)
system.cpu0.dtb_walker_cache.tags.tagAccesses            0                       # Number of tag accesses (Count)
system.cpu0.dtb_walker_cache.tags.dataAccesses            0                       # Number of data accesses (Count)
system.cpu0.dtb_walker_cache.tags.power_state.pwrStateResidencyTicks::UNDEFINED   2412773500                       # Cumulative time (in ticks) in various power states (Tick)
system.cpu0.exec_context.thread_0.numMatAluAccesses            0                       # Number of matrix alu accesses (Count)
system.cpu0.exec_context.thread_0.numCallsReturns        23871                       # Number of times a function call or return occured (Count)
system.cpu0.exec_context.thread_0.numMatInsts            0                       # Number of matrix instructions (Count)
system.cpu0.exec_context.thread_0.numIdleCycles 264985.602296                       # Number of idle cycles (Cycle)
system.cpu0.exec_context.thread_0.numBusyCycles 4564837.397704                       # Number of busy cycles (Cycle)
system.cpu0.exec_context.thread_0.notIdleFraction     0.945136                       # Percentage of non-idle cycles (Ratio)
system.cpu0.exec_context.thread_0.idleFraction     0.054864                       # Percentage of idle cycles (Ratio)
system.cpu0.executeStats0.numInsts                  0                       # Number of executed instructions (Count)
system.cpu0.executeStats0.numNop                    0                       # Number of nop insts executed (Count)
system.cpu0.executeStats0.numBranches               0                       # Number of branches executed (Count)
system.cpu0.executeStats0.numLoadInsts              0                       # Number of load instructions executed (Count)
system.cpu0.executeStats0.numStoreInsts        470539                       # Number of stores executed (Count)
system.cpu0.executeStats0.instRate                  0                       # Inst execution rate ((Count/Cycle))
system.cpu0.executeStats0.numFpAluAccesses        15636                       # Number of float alu accesses (Count)
system.cpu0.executeStats0.numFpRegReads         15334                       # Number of times the floating registers were read (Count)
system.cpu0.executeStats0.numFpRegWrites        11553                       # Number of times the floating registers were written (Count)
system.cpu0.executeStats0.numIntAluAccesses      3853664                       # Number of integer alu accesses (Count)
system.cpu0.executeStats0.numIntRegReads      3946107                       # Number of times the integer registers were read (Count)
system.cpu0.executeStats0.numIntRegWrites      2505052                       # Number of times the integer registers were written (Count)
system.cpu0.executeStats0.numMemRefs           470539                       # Number of memory refs (Count)
system.cpu0.executeStats0.numMiscRegReads      1771629                       # Number of times the Misc registers were read (Count)
system.cpu0.executeStats0.numVecAluAccesses            0                       # Number of vector alu accesses (Count)
system.cpu0.executeStats0.numDiscardedOps            0                       # Number of ops (including micro ops) which were discarded before commit (Count)
system.cpu0.fetchStats0.numInsts              2425114                       # Number of instructions fetched (thread level) (Count)
system.cpu0.fetchStats0.numOps                4178017                       # Number of ops (including micro ops) fetched (thread level) (Count)
system.cpu0.fetchStats0.fetchRate            0.502112                       # Number of inst fetches per cycle ((Count/Cycle))
system.cpu0.fetchStats0.numBranches            654363                       # Number of branches fetched (Count)
system.cpu0.fetchStats0.branchRate           0.135484                       # Number of branch fetches per cycle (Ratio)
system.cpu0.fetchStats0.numFetchSuspends            0                       # Number of times Execute suspended instruction fetching (Count)
system.cpu0.icache.demandHits::cpu0.inst      2810402                       # number of demand (read+write) hits (Count)
system.cpu0.icache.demandHits::total          2810402                       # number of demand (read+write) hits (Count)
system.cpu0.icache.overallHits::cpu0.inst      2810402                       # number of overall hits (Count)
system.cpu0.icache.overallHits::total         2810402                       # number of overall hits (Count)
system.cpu0.icache.demandMisses::cpu0.inst         1769                       # number of demand (read+write) misses (Count)
system.cpu0.icache.demandMisses::total           1769                       # number of demand (read+write) misses (Count)
system.cpu0.icache.overallMisses::cpu0.inst         1769                       # number of overall misses (Count)
system.cpu0.icache.overallMisses::total          1769                       # number of overall misses (Count)
system.cpu0.icache.demandAccesses::cpu0.inst      2812171                       # number of demand (read+write) accesses (Count)
system.cpu0.icache.demandAccesses::total      2812171                       # number of demand (read+write) accesses (Count)
system.cpu0.icache.overallAccesses::cpu0.inst      2812171                       # number of overall (read+write) accesses (Count)
system.cpu0.icache.overallAccesses::total      2812171                       # number of overall (read+write) accesses (Count)
system.cpu0.icache.demandMissRate::cpu0.inst     0.000629                       # miss rate for demand accesses (Ratio)
system.cpu0.icache.demandMissRate::total     0.000629                       # miss rate for demand accesses (Ratio)
system.cpu0.icache.overallMissRate::cpu0.inst     0.000629                       # miss rate for overall accesses (Ratio)
system.cpu0.icache.overallMissRate::total     0.000629                       # miss rate for overall accesses (Ratio)
system.cpu0.icache.blockedCycles::no_mshrs            0                       # number of cycles access was blocked (Cycle)
system.cpu0.icache.blockedCycles::no_targets            0                       # number of cycles access was blocked (Cycle)
system.cpu0.icache.blockedCauses::no_mshrs            0                       # number of times access was blocked (Count)
system.cpu0.icache.blockedCauses::no_targets            0                       # number of times access was blocked (Count)
system.cpu0.icache.avgBlocked::no_mshrs           nan                       # average number of cycles each access was blocked ((Cycle/Count))
system.cpu0.icache.avgBlocked::no_targets          nan                       # average number of cycles each access was blocked ((Cycle/Count))
system.cpu0.icache.writebacks::writebacks         1513                       # number of writebacks (Count)
system.cpu0.icache.writebacks::total             1513                       # number of writebacks (Count)
system.cpu0.icache.replacements                  1513                       # number of replacements (Count)
system.cpu0.icache.ReadReq.hits::cpu0.inst      2810402                       # number of ReadReq hits (Count)
system.cpu0.icache.ReadReq.hits::total        2810402                       # number of ReadReq hits (Count)
system.cpu0.icache.ReadReq.misses::cpu0.inst         1769                       # number of ReadReq misses (Count)
system.cpu0.icache.ReadReq.misses::total         1769                       # number of ReadReq misses (Count)
system.cpu0.icache.ReadReq.accesses::cpu0.inst      2812171                       # number of ReadReq accesses(hits+misses) (Count)
system.cpu0.icache.ReadReq.accesses::total      2812171                       # number of ReadReq accesses(hits+misses) (Count)
system.cpu0.icache.ReadReq.missRate::cpu0.inst     0.000629                       # miss rate for ReadReq accesses (Ratio)
system.cpu0.icache.ReadReq.missRate::total     0.000629                       # miss rate for ReadReq accesses (Ratio)
system.cpu0.icache.power_state.pwrStateResidencyTicks::UNDEFINED   2412773500                       # Cumulative time (in ticks) in various power states (Tick)
system.cpu0.icache.tags.tagsInUse          255.569380                       # Average ticks per tags in use ((Tick/Count))
system.cpu0.icache.tags.totalRefs             2812171                       # Total number of references to valid blocks. (Count)
system.cpu0.icache.tags.sampledRefs              1769                       # Sample count of references to valid blocks. (Count)
system.cpu0.icache.tags.avgRefs           1589.695308                       # Average number of references to valid blocks. ((Count/Count))
system.cpu0.icache.tags.warmupTick                  0                       # The tick when the warmup percentage was hit. (Tick)
system.cpu0.icache.tags.occupancies::cpu0.inst   255.569380                       # Average occupied blocks per tick, per requestor ((Count/Tick))
system.cpu0.icache.tags.avgOccs::cpu0.inst     0.998318                       # Average percentage of cache occupancy ((Ratio/Tick))
system.cpu0.icache.tags.avgOccs::total       0.998318                       # Average percentage of cache occupancy ((Ratio/Tick))
system.cpu0.icache.tags.occupanciesTaskId::1024          256                       # Occupied blocks per task id (Count)
system.cpu0.icache.tags.ageTaskId_1024::0          112                       # Occupied blocks per task id, per block age (Count)
system.cpu0.icache.tags.ageTaskId_1024::1            1                       # Occupied blocks per task id, per block age (Count)
system.cpu0.icache.tags.ageTaskId_1024::2           31                       # Occupied blocks per task id, per block age (Count)
system.cpu0.icache.tags.ageTaskId_1024::3          112                       # Occupied blocks per task id, per block age (Count)
system.cpu0.icache.tags.ratioOccsTaskId::1024            1                       # Ratio of occupied blocks and all blocks, per task id (Ratio)
system.cpu0.icache.tags.tagAccesses           5626111                       # Number of tag accesses (Count)
system.cpu0.icache.tags.dataAccesses          5626111                       # Number of data accesses (Count)
system.cpu0.icache.tags.power_state.pwrStateResidencyTicks::UNDEFINED   2412773500                       # Cumulative time (in ticks) in various power states (Tick)
system.cpu0.interrupts.clk_domain.clock          8000                       # Clock period in ticks (Tick)
system.cpu0.itb_walker_cache.blockedCycles::no_mshrs            0                       # number of cycles access was blocked (Cycle)
system.cpu0.itb_walker_cache.blockedCycles::no_targets            0                       # number of cycles access was blocked (Cycle)
system.cpu0.itb_walker_cache.blockedCauses::no_mshrs            0                       # number of times access was blocked (Count)
system.cpu0.itb_walker_cache.blockedCauses::no_targets            0                       # number of times access was blocked (Count)
system.cpu0.itb_walker_cache.avgBlocked::no_mshrs          nan                       # average number of cycles each access was blocked ((Cycle/Count))
system.cpu0.itb_walker_cache.avgBlocked::no_targets          nan                       # average number of cycles each access was blocked ((Cycle/Count))
system.cpu0.itb_walker_cache.replacements            0                       # number of replacements (Count)
system.cpu0.itb_walker_cache.power_state.pwrStateResidencyTicks::UNDEFINED   2412773500                       # Cumulative time (in ticks) in various power states (Tick)
system.cpu0.itb_walker_cache.tags.tagsInUse            0                       # Average ticks per tags in use ((Tick/Count))
system.cpu0.itb_walker_cache.tags.totalRefs            0                       # Total number of references to valid blocks. (Count)
system.cpu0.itb_walker_cache.tags.sampledRefs            0                       # Sample count of references to valid blocks. (Count)
system.cpu0.itb_walker_cache.tags.avgRefs          nan                       # Average number of references to valid blocks. ((Count/Count))
system.cpu0.itb_walker_cache.tags.warmupTick            0                       # The tick when the warmup percentage was hit. (Tick)
system.cpu0.itb_walker_cache.tags.tagAccesses            0                       # Number of tag accesses (Count)
system.cpu0.itb_walker_cache.tags.dataAccesses            0                       # Number of data accesses (Count)
system.cpu0.itb_walker_cache.tags.power_state.pwrStateResidencyTicks::UNDEFINED   2412773500                       # Cumulative time (in ticks) in various power states (Tick)
system.cpu0.mmu.dtb.rdAccesses                 407766                       # TLB accesses on read requests (Count)
system.cpu0.mmu.dtb.wrAccesses                  62805                       # TLB accesses on write requests (Count)
system.cpu0.mmu.dtb.rdMisses                       51                       # TLB misses on read requests (Count)
system.cpu0.mmu.dtb.wrMisses                       28                       # TLB misses on write requests (Count)
system.cpu0.mmu.dtb.walker.power_state.pwrStateResidencyTicks::UNDEFINED   2412773500                       # Cumulative time (in ticks) in various power states (Tick)
system.cpu0.mmu.itb.rdAccesses                      0                       # TLB accesses on read requests (Count)
system.cpu0.mmu.itb.wrAccesses                2812171                       # TLB accesses on write requests (Count)
system.cpu0.mmu.itb.rdMisses                        0                       # TLB misses on read requests (Count)
system.cpu0.mmu.itb.wrMisses                      189                       # TLB misses on write requests (Count)
system.cpu0.mmu.itb.walker.power_state.pwrStateResidencyTicks::UNDEFINED   2412773500                       # Cumulative time (in ticks) in various power states (Tick)
system.cpu0.power_state.numTransitions              2                       # Number of power state transitions (Count)
system.cpu0.power_state.ticksClkGated::samples            1                       # Distribution of time spent in the clock gated state (Tick)
system.cpu0.power_state.ticksClkGated::mean    132375500                       # Distribution of time spent in the clock gated state (Tick)
system.cpu0.power_state.ticksClkGated::1000-5e+10            1    100.00%    100.00% # Distribution of time spent in the clock gated state (Tick)
system.cpu0.power_state.ticksClkGated::min_value    132375500                       # Distribution of time spent in the clock gated state (Tick)
system.cpu0.power_state.ticksClkGated::max_value    132375500                       # Distribution of time spent in the clock gated state (Tick)
system.cpu0.power_state.ticksClkGated::total            1                       # Distribution of time spent in the clock gated state (Tick)
system.cpu0.power_state.pwrStateResidencyTicks::ON   2280398000                       # Cumulative time (in ticks) in various power states (Tick)
system.cpu0.power_state.pwrStateResidencyTicks::CLK_GATED    132375500                       # Cumulative time (in ticks) in various power states (Tick)
system.cpu0.thread_0.numInsts                       0                       # Number of Instructions committed (Count)
system.cpu0.thread_0.numOps                         0                       # Number of Ops committed (Count)
system.cpu0.thread_0.numMemRefs                     0                       # Number of Memory References (Count)
system.cpu0.workload.numSyscalls                   51                       # Number of system calls (Count)
system.cpu1.numCycles                         4835614                       # Number of cpu cycles simulated (Cycle)
system.cpu1.cpi                              2.224021                       # CPI: cycles per instruction (core level) ((Cycle/Count))
system.cpu1.ipc                              0.449636                       # IPC: instructions per cycle (core level) ((Count/Cycle))
system.cpu1.numWorkItemsStarted                     0                       # Number of work items this cpu started (Count)
system.cpu1.numWorkItemsCompleted                   0                       # Number of work items this cpu completed (Count)
system.cpu1.commitStats0.numInsts             2174266                       # Number of instructions committed (thread level) (Count)
system.cpu1.commitStats0.numOps               3800214                       # Number of ops (including micro ops) committed (thread level) (Count)
system.cpu1.commitStats0.numInstsNotNOP             0                       # Number of instructions committed excluding NOPs or prefetches (Count)
system.cpu1.commitStats0.numOpsNotNOP               0                       # Number of Ops (including micro ops) Simulated (Count)
system.cpu1.commitStats0.cpi                 2.224021                       # CPI: cycles per instruction (thread level) ((Cycle/Count))
system.cpu1.commitStats0.ipc                 0.449636                       # IPC: instructions per cycle (thread level) ((Count/Cycle))
system.cpu1.commitStats0.numMemRefs                 0                       # Number of memory references committed (Count)
system.cpu1.commitStats0.numFpInsts             25396                       # Number of float instructions (Count)
system.cpu1.commitStats0.numIntInsts          3642604                       # Number of integer instructions (Count)
system.cpu1.commitStats0.numLoadInsts          676543                       # Number of load instructions (Count)
system.cpu1.commitStats0.numStoreInsts         493986                       # Number of store instructions (Count)
system.cpu1.commitStats0.numVecInsts                0                       # Number of vector instructions (Count)
system.cpu1.commitStats0.committedInstType::No_OpClass        95542      2.51%      2.51% # Class of committed instruction. (Count)
system.cpu1.commitStats0.committedInstType::IntAlu      2531314     66.61%     69.12% # Class of committed instruction. (Count)
system.cpu1.commitStats0.committedInstType::IntMult            0      0.00%     69.12% # Class of committed instruction. (Count)
system.cpu1.commitStats0.committedInstType::IntDiv            0      0.00%     69.12% # Class of committed instruction. (Count)
system.cpu1.commitStats0.committedInstType::FloatAdd         1247      0.03%     69.16% # Class of committed instruction. (Count)
system.cpu1.commitStats0.committedInstType::FloatCmp            0      0.00%     69.16% # Class of committed instruction. (Count)
system.cpu1.commitStats0.committedInstType::FloatCvt            0      0.00%     69.16% # Class of committed instruction. (Count)
system.cpu1.commitStats0.committedInstType::FloatMult            0      0.00%     69.16% # Class of committed instruction. (Count)
system.cpu1.commitStats0.committedInstType::FloatMultAcc            0      0.00%     69.16% # Class of committed instruction. (Count)
system.cpu1.commitStats0.committedInstType::FloatDiv            0      0.00%     69.16% # Class of committed instruction. (Count)
system.cpu1.commitStats0.committedInstType::FloatMisc            0      0.00%     69.16% # Class of committed instruction. (Count)
system.cpu1.commitStats0.committedInstType::FloatSqrt            0      0.00%     69.16% # Class of committed instruction. (Count)
system.cpu1.commitStats0.committedInstType::SimdAdd            0      0.00%     69.16% # Class of committed instruction. (Count)
system.cpu1.commitStats0.committedInstType::SimdAddAcc            0      0.00%     69.16% # Class of committed instruction. (Count)
system.cpu1.commitStats0.committedInstType::SimdAlu          240      0.01%     69.16% # Class of committed instruction. (Count)
system.cpu1.commitStats0.committedInstType::SimdCmp            0      0.00%     69.16% # Class of committed instruction. (Count)
system.cpu1.commitStats0.committedInstType::SimdCvt            0      0.00%     69.16% # Class of committed instruction. (Count)
system.cpu1.commitStats0.committedInstType::SimdMisc         1342      0.04%     69.20% # Class of committed instruction. (Count)
system.cpu1.commitStats0.committedInstType::SimdMult            0      0.00%     69.20% # Class of committed instruction. (Count)
system.cpu1.commitStats0.committedInstType::SimdMultAcc            0      0.00%     69.20% # Class of committed instruction. (Count)
system.cpu1.commitStats0.committedInstType::SimdMatMultAcc            0      0.00%     69.20% # Class of committed instruction. (Count)
system.cpu1.commitStats0.committedInstType::SimdShift            0      0.00%     69.20% # Class of committed instruction. (Count)
system.cpu1.commitStats0.committedInstType::SimdShiftAcc            0      0.00%     69.20% # Class of committed instruction. (Count)
system.cpu1.commitStats0.committedInstType::SimdDiv            0      0.00%     69.20% # Class of committed instruction. (Count)
system.cpu1.commitStats0.committedInstType::SimdSqrt            0      0.00%     69.20% # Class of committed instruction. (Count)
system.cpu1.commitStats0.committedInstType::SimdFloatAdd            0      0.00%     69.20% # Class of committed instruction. (Count)
system.cpu1.commitStats0.committedInstType::SimdFloatAlu            0      0.00%     69.20% # Class of committed instruction. (Count)
system.cpu1.commitStats0.committedInstType::SimdFloatCmp            0      0.00%     69.20% # Class of committed instruction. (Count)
system.cpu1.commitStats0.committedInstType::SimdFloatCvt            0      0.00%     69.20% # Class of committed instruction. (Count)
system.cpu1.commitStats0.committedInstType::SimdFloatDiv            0      0.00%     69.20% # Class of committed instruction. (Count)
system.cpu1.commitStats0.committedInstType::SimdFloatMisc            0      0.00%     69.20% # Class of committed instruction. (Count)
system.cpu1.commitStats0.committedInstType::SimdFloatMult            0      0.00%     69.20% # Class of committed instruction. (Count)
system.cpu1.commitStats0.committedInstType::SimdFloatMultAcc            0      0.00%     69.20% # Class of committed instruction. (Count)
system.cpu1.commitStats0.committedInstType::SimdFloatMatMultAcc            0      0.00%     69.20% # Class of committed instruction. (Count)
system.cpu1.commitStats0.committedInstType::SimdFloatSqrt            0      0.00%     69.20% # Class of committed instruction. (Count)
system.cpu1.commitStats0.committedInstType::SimdReduceAdd            0      0.00%     69.20% # Class of committed instruction. (Count)
system.cpu1.commitStats0.committedInstType::SimdReduceAlu            0      0.00%     69.20% # Class of committed instruction. (Count)
system.cpu1.commitStats0.committedInstType::SimdReduceCmp            0      0.00%     69.20% # Class of committed instruction. (Count)
system.cpu1.commitStats0.committedInstType::SimdFloatReduceAdd            0      0.00%     69.20% # Class of committed instruction. (Count)
system.cpu1.commitStats0.committedInstType::SimdFloatReduceCmp            0      0.00%     69.20% # Class of committed instruction. (Count)
system.cpu1.commitStats0.committedInstType::SimdAes            0      0.00%     69.20% # Class of committed instruction. (Count)
system.cpu1.commitStats0.committedInstType::SimdAesMix            0      0.00%     69.20% # Class of committed instruction. (Count)
system.cpu1.commitStats0.committedInstType::SimdSha1Hash            0      0.00%     69.20% # Class of committed instruction. (Count)
system.cpu1.commitStats0.committedInstType::SimdSha1Hash2            0      0.00%     69.20% # Class of committed instruction. (Count)
system.cpu1.commitStats0.committedInstType::SimdSha256Hash            0      0.00%     69.20% # Class of committed instruction. (Count)
system.cpu1.commitStats0.committedInstType::SimdSha256Hash2            0      0.00%     69.20% # Class of committed instruction. (Count)
system.cpu1.commitStats0.committedInstType::SimdShaSigma2            0      0.00%     69.20% # Class of committed instruction. (Count)
system.cpu1.commitStats0.committedInstType::SimdShaSigma3            0      0.00%     69.20% # Class of committed instruction. (Count)
system.cpu1.commitStats0.committedInstType::SimdPredAlu            0      0.00%     69.20% # Class of committed instruction. (Count)
system.cpu1.commitStats0.committedInstType::Matrix            0      0.00%     69.20% # Class of committed instruction. (Count)
system.cpu1.commitStats0.committedInstType::MatrixMov            0      0.00%     69.20% # Class of committed instruction. (Count)
system.cpu1.commitStats0.committedInstType::MatrixOP            0      0.00%     69.20% # Class of committed instruction. (Count)
system.cpu1.commitStats0.committedInstType::MemRead       666362     17.53%     86.73% # Class of committed instruction. (Count)
system.cpu1.commitStats0.committedInstType::MemWrite       482879     12.71%     99.44% # Class of committed instruction. (Count)
system.cpu1.commitStats0.committedInstType::FloatMemRead        10181      0.27%     99.71% # Class of committed instruction. (Count)
system.cpu1.commitStats0.committedInstType::FloatMemWrite        11107      0.29%    100.00% # Class of committed instruction. (Count)
system.cpu1.commitStats0.committedInstType::IprAccess            0      0.00%    100.00% # Class of committed instruction. (Count)
system.cpu1.commitStats0.committedInstType::InstPrefetch            0      0.00%    100.00% # Class of committed instruction. (Count)
system.cpu1.commitStats0.committedInstType::SimdUnitStrideLoad            0      0.00%    100.00% # Class of committed instruction. (Count)
system.cpu1.commitStats0.committedInstType::SimdUnitStrideStore            0      0.00%    100.00% # Class of committed instruction. (Count)
system.cpu1.commitStats0.committedInstType::SimdUnitStrideMaskLoad            0      0.00%    100.00% # Class of committed instruction. (Count)
system.cpu1.commitStats0.committedInstType::SimdUnitStrideMaskStore            0      0.00%    100.00% # Class of committed instruction. (Count)
system.cpu1.commitStats0.committedInstType::SimdStridedLoad            0      0.00%    100.00% # Class of committed instruction. (Count)
system.cpu1.commitStats0.committedInstType::SimdStridedStore            0      0.00%    100.00% # Class of committed instruction. (Count)
system.cpu1.commitStats0.committedInstType::SimdIndexedLoad            0      0.00%    100.00% # Class of committed instruction. (Count)
system.cpu1.commitStats0.committedInstType::SimdIndexedStore            0      0.00%    100.00% # Class of committed instruction. (Count)
system.cpu1.commitStats0.committedInstType::SimdWholeRegisterLoad            0      0.00%    100.00% # Class of committed instruction. (Count)
system.cpu1.commitStats0.committedInstType::SimdWholeRegisterStore            0      0.00%    100.00% # Class of committed instruction. (Count)
system.cpu1.commitStats0.committedInstType::SimdUnitStrideFaultOnlyFirstLoad            0      0.00%    100.00% # Class of committed instruction. (Count)
system.cpu1.commitStats0.committedInstType::SimdUnitStrideSegmentedLoad            0      0.00%    100.00% # Class of committed instruction. (Count)
system.cpu1.commitStats0.committedInstType::SimdUnitStrideSegmentedStore            0      0.00%    100.00% # Class of committed instruction. (Count)
system.cpu1.commitStats0.committedInstType::SimdUnitStrideSegmentedFaultOnlyFirstLoad            0      0.00%    100.00% # Class of committed instruction. (Count)
system.cpu1.commitStats0.committedInstType::SimdStrideSegmentedLoad            0      0.00%    100.00% # Class of committed instruction. (Count)
system.cpu1.commitStats0.committedInstType::SimdStrideSegmentedStore            0      0.00%    100.00% # Class of committed instruction. (Count)
system.cpu1.commitStats0.committedInstType::SimdExt            0      0.00%    100.00% # Class of committed instruction. (Count)
system.cpu1.commitStats0.committedInstType::SimdFloatExt            0      0.00%    100.00% # Class of committed instruction. (Count)
system.cpu1.commitStats0.committedInstType::SimdConfig            0      0.00%    100.00% # Class of committed instruction. (Count)
system.cpu1.commitStats0.committedInstType::total      3800214                       # Class of committed instruction. (Count)
system.cpu1.commitStats0.committedControl::IsControl       358658                       # Class of control type instructions committed (Count)
system.cpu1.commitStats0.committedControl::IsDirectControl       265999                       # Class of control type instructions committed (Count)
system.cpu1.commitStats0.committedControl::IsIndirectControl        92659                       # Class of control type instructions committed (Count)
system.cpu1.commitStats0.committedControl::IsCondControl       154778                       # Class of control type instructions committed (Count)
system.cpu1.commitStats0.committedControl::IsUncondControl       203880                       # Class of control type instructions committed (Count)
system.cpu1.commitStats0.committedControl::IsCall        92159                       # Class of control type instructions committed (Count)
system.cpu1.commitStats0.committedControl::IsReturn        92156                       # Class of control type instructions committed (Count)
system.cpu1.dcache.demandHits::cpu1.data      1159816                       # number of demand (read+write) hits (Count)
system.cpu1.dcache.demandHits::total          1159816                       # number of demand (read+write) hits (Count)
system.cpu1.dcache.overallHits::cpu1.data      1159816                       # number of overall hits (Count)
system.cpu1.dcache.overallHits::total         1159816                       # number of overall hits (Count)
system.cpu1.dcache.demandMisses::cpu1.data          641                       # number of demand (read+write) misses (Count)
system.cpu1.dcache.demandMisses::total            641                       # number of demand (read+write) misses (Count)
system.cpu1.dcache.overallMisses::cpu1.data          641                       # number of overall misses (Count)
system.cpu1.dcache.overallMisses::total           641                       # number of overall misses (Count)
system.cpu1.dcache.demandAccesses::cpu1.data      1160457                       # number of demand (read+write) accesses (Count)
system.cpu1.dcache.demandAccesses::total      1160457                       # number of demand (read+write) accesses (Count)
system.cpu1.dcache.overallAccesses::cpu1.data      1160457                       # number of overall (read+write) accesses (Count)
system.cpu1.dcache.overallAccesses::total      1160457                       # number of overall (read+write) accesses (Count)
system.cpu1.dcache.demandMissRate::cpu1.data     0.000552                       # miss rate for demand accesses (Ratio)
system.cpu1.dcache.demandMissRate::total     0.000552                       # miss rate for demand accesses (Ratio)
system.cpu1.dcache.overallMissRate::cpu1.data     0.000552                       # miss rate for overall accesses (Ratio)
system.cpu1.dcache.overallMissRate::total     0.000552                       # miss rate for overall accesses (Ratio)
system.cpu1.dcache.blockedCycles::no_mshrs            0                       # number of cycles access was blocked (Cycle)
system.cpu1.dcache.blockedCycles::no_targets            0                       # number of cycles access was blocked (Cycle)
system.cpu1.dcache.blockedCauses::no_mshrs            0                       # number of times access was blocked (Count)
system.cpu1.dcache.blockedCauses::no_targets            0                       # number of times access was blocked (Count)
system.cpu1.dcache.avgBlocked::no_mshrs           nan                       # average number of cycles each access was blocked ((Cycle/Count))
system.cpu1.dcache.avgBlocked::no_targets          nan                       # average number of cycles each access was blocked ((Cycle/Count))
system.cpu1.dcache.writebacks::writebacks          155                       # number of writebacks (Count)
system.cpu1.dcache.writebacks::total              155                       # number of writebacks (Count)
system.cpu1.dcache.replacements                   220                       # number of replacements (Count)
system.cpu1.dcache.LockedRMWReadReq.hits::cpu1.data         4535                       # number of LockedRMWReadReq hits (Count)
system.cpu1.dcache.LockedRMWReadReq.hits::total         4535                       # number of LockedRMWReadReq hits (Count)
system.cpu1.dcache.LockedRMWReadReq.misses::cpu1.data          498                       # number of LockedRMWReadReq misses (Count)
system.cpu1.dcache.LockedRMWReadReq.misses::total          498                       # number of LockedRMWReadReq misses (Count)
system.cpu1.dcache.LockedRMWReadReq.accesses::cpu1.data         5033                       # number of LockedRMWReadReq accesses(hits+misses) (Count)
system.cpu1.dcache.LockedRMWReadReq.accesses::total         5033                       # number of LockedRMWReadReq accesses(hits+misses) (Count)
system.cpu1.dcache.LockedRMWReadReq.missRate::cpu1.data     0.098947                       # miss rate for LockedRMWReadReq accesses (Ratio)
system.cpu1.dcache.LockedRMWReadReq.missRate::total     0.098947                       # miss rate for LockedRMWReadReq accesses (Ratio)
system.cpu1.dcache.LockedRMWWriteReq.hits::cpu1.data         5033                       # number of LockedRMWWriteReq hits (Count)
system.cpu1.dcache.LockedRMWWriteReq.hits::total         5033                       # number of LockedRMWWriteReq hits (Count)
system.cpu1.dcache.LockedRMWWriteReq.accesses::cpu1.data         5033                       # number of LockedRMWWriteReq accesses(hits+misses) (Count)
system.cpu1.dcache.LockedRMWWriteReq.accesses::total         5033                       # number of LockedRMWWriteReq accesses(hits+misses) (Count)
system.cpu1.dcache.ReadReq.hits::cpu1.data       671294                       # number of ReadReq hits (Count)
system.cpu1.dcache.ReadReq.hits::total         671294                       # number of ReadReq hits (Count)
system.cpu1.dcache.ReadReq.misses::cpu1.data          216                       # number of ReadReq misses (Count)
system.cpu1.dcache.ReadReq.misses::total          216                       # number of ReadReq misses (Count)
system.cpu1.dcache.ReadReq.accesses::cpu1.data       671510                       # number of ReadReq accesses(hits+misses) (Count)
system.cpu1.dcache.ReadReq.accesses::total       671510                       # number of ReadReq accesses(hits+misses) (Count)
system.cpu1.dcache.ReadReq.missRate::cpu1.data     0.000322                       # miss rate for ReadReq accesses (Ratio)
system.cpu1.dcache.ReadReq.missRate::total     0.000322                       # miss rate for ReadReq accesses (Ratio)
system.cpu1.dcache.WriteReq.hits::cpu1.data       488522                       # number of WriteReq hits (Count)
system.cpu1.dcache.WriteReq.hits::total        488522                       # number of WriteReq hits (Count)
system.cpu1.dcache.WriteReq.misses::cpu1.data          425                       # number of WriteReq misses (Count)
system.cpu1.dcache.WriteReq.misses::total          425                       # number of WriteReq misses (Count)
system.cpu1.dcache.WriteReq.accesses::cpu1.data       488947                       # number of WriteReq accesses(hits+misses) (Count)
system.cpu1.dcache.WriteReq.accesses::total       488947                       # number of WriteReq accesses(hits+misses) (Count)
system.cpu1.dcache.WriteReq.missRate::cpu1.data     0.000869                       # miss rate for WriteReq accesses (Ratio)
system.cpu1.dcache.WriteReq.missRate::total     0.000869                       # miss rate for WriteReq accesses (Ratio)
system.cpu1.dcache.power_state.pwrStateResidencyTicks::UNDEFINED   2412773500                       # Cumulative time (in ticks) in various power states (Tick)
system.cpu1.dcache.tags.tagsInUse          308.172868                       # Average ticks per tags in use ((Tick/Count))
system.cpu1.dcache.tags.totalRefs             1170523                       # Total number of references to valid blocks. (Count)
system.cpu1.dcache.tags.sampledRefs              1095                       # Sample count of references to valid blocks. (Count)
system.cpu1.dcache.tags.avgRefs           1068.970776                       # Average number of references to valid blocks. ((Count/Count))
system.cpu1.dcache.tags.warmupTick          192399500                       # The tick when the warmup percentage was hit. (Tick)
system.cpu1.dcache.tags.occupancies::cpu1.data   308.172868                       # Average occupied blocks per tick, per requestor ((Count/Tick))
system.cpu1.dcache.tags.avgOccs::cpu1.data     0.300950                       # Average percentage of cache occupancy ((Ratio/Tick))
system.cpu1.dcache.tags.avgOccs::total       0.300950                       # Average percentage of cache occupancy ((Ratio/Tick))
system.cpu1.dcache.tags.occupanciesTaskId::1024          326                       # Occupied blocks per task id (Count)
system.cpu1.dcache.tags.ageTaskId_1024::2            8                       # Occupied blocks per task id, per block age (Count)
system.cpu1.dcache.tags.ageTaskId_1024::3          318                       # Occupied blocks per task id, per block age (Count)
system.cpu1.dcache.tags.ratioOccsTaskId::1024     0.318359                       # Ratio of occupied blocks and all blocks, per task id (Ratio)
system.cpu1.dcache.tags.tagAccesses           2342141                       # Number of tag accesses (Count)
system.cpu1.dcache.tags.dataAccesses          2342141                       # Number of data accesses (Count)
system.cpu1.dcache.tags.power_state.pwrStateResidencyTicks::UNDEFINED   2412773500                       # Cumulative time (in ticks) in various power states (Tick)
system.cpu1.dtb_walker_cache.blockedCycles::no_mshrs            0                       # number of cycles access was blocked (Cycle)
system.cpu1.dtb_walker_cache.blockedCycles::no_targets            0                       # number of cycles access was blocked (Cycle)
system.cpu1.dtb_walker_cache.blockedCauses::no_mshrs            0                       # number of times access was blocked (Count)
system.cpu1.dtb_walker_cache.blockedCauses::no_targets            0                       # number of times access was blocked (Count)
system.cpu1.dtb_walker_cache.avgBlocked::no_mshrs          nan                       # average number of cycles each access was blocked ((Cycle/Count))
system.cpu1.dtb_walker_cache.avgBlocked::no_targets          nan                       # average number of cycles each access was blocked ((Cycle/Count))
system.cpu1.dtb_walker_cache.replacements            0                       # number of replacements (Count)
system.cpu1.dtb_walker_cache.power_state.pwrStateResidencyTicks::UNDEFINED   2412773500                       # Cumulative time (in ticks) in various power states (Tick)
system.cpu1.dtb_walker_cache.tags.tagsInUse            0                       # Average ticks per tags in use ((Tick/Count))
system.cpu1.dtb_walker_cache.tags.totalRefs            0                       # Total number of references to valid blocks. (Count)
system.cpu1.dtb_walker_cache.tags.sampledRefs            0                       # Sample count of references to valid blocks. (Count)
system.cpu1.dtb_walker_cache.tags.avgRefs          nan                       # Average number of references to valid blocks. ((Count/Count))
system.cpu1.dtb_walker_cache.tags.warmupTick            0                       # The tick when the warmup percentage was hit. (Tick)
system.cpu1.dtb_walker_cache.tags.tagAccesses            0                       # Number of tag accesses (Count)
system.cpu1.dtb_walker_cache.tags.dataAccesses            0                       # Number of data accesses (Count)
system.cpu1.dtb_walker_cache.tags.power_state.pwrStateResidencyTicks::UNDEFINED   2412773500                       # Cumulative time (in ticks) in various power states (Tick)
system.cpu1.exec_context.thread_0.numMatAluAccesses            0                       # Number of matrix alu accesses (Count)
system.cpu1.exec_context.thread_0.numCallsReturns       184315                       # Number of times a function call or return occured (Count)
system.cpu1.exec_context.thread_0.numMatInsts            0                       # Number of matrix instructions (Count)
system.cpu1.exec_context.thread_0.numIdleCycles 385588.737920                       # Number of idle cycles (Cycle)
system.cpu1.exec_context.thread_0.numBusyCycles 4450025.262080                       # Number of busy cycles (Cycle)
system.cpu1.exec_context.thread_0.notIdleFraction     0.920261                       # Percentage of non-idle cycles (Ratio)
system.cpu1.exec_context.thread_0.idleFraction     0.079739                       # Percentage of idle cycles (Ratio)
system.cpu1.executeStats0.numInsts                  0                       # Number of executed instructions (Count)
system.cpu1.executeStats0.numNop                    0                       # Number of nop insts executed (Count)
system.cpu1.executeStats0.numBranches               0                       # Number of branches executed (Count)
system.cpu1.executeStats0.numLoadInsts              0                       # Number of load instructions executed (Count)
system.cpu1.executeStats0.numStoreInsts       1170529                       # Number of stores executed (Count)
system.cpu1.executeStats0.instRate                  0                       # Inst execution rate ((Count/Cycle))
system.cpu1.executeStats0.numFpAluAccesses        25396                       # Number of float alu accesses (Count)
system.cpu1.executeStats0.numFpRegReads         15487                       # Number of times the floating registers were read (Count)
system.cpu1.executeStats0.numFpRegWrites        14194                       # Number of times the floating registers were written (Count)
system.cpu1.executeStats0.numIntAluAccesses      3642604                       # Number of integer alu accesses (Count)
system.cpu1.executeStats0.numIntRegReads      4111777                       # Number of times the integer registers were read (Count)
system.cpu1.executeStats0.numIntRegWrites      2618172                       # Number of times the integer registers were written (Count)
system.cpu1.executeStats0.numMemRefs          1170529                       # Number of memory refs (Count)
system.cpu1.executeStats0.numMiscRegReads      1817087                       # Number of times the Misc registers were read (Count)
system.cpu1.executeStats0.numVecAluAccesses            0                       # Number of vector alu accesses (Count)
system.cpu1.executeStats0.numDiscardedOps            0                       # Number of ops (including micro ops) which were discarded before commit (Count)
system.cpu1.fetchStats0.numInsts              2174266                       # Number of instructions fetched (thread level) (Count)
system.cpu1.fetchStats0.numOps                3800214                       # Number of ops (including micro ops) fetched (thread level) (Count)
system.cpu1.fetchStats0.fetchRate            0.449636                       # Number of inst fetches per cycle ((Count/Cycle))
system.cpu1.fetchStats0.numBranches            358658                       # Number of branches fetched (Count)
system.cpu1.fetchStats0.branchRate           0.074170                       # Number of branch fetches per cycle (Ratio)
system.cpu1.fetchStats0.numFetchSuspends            0                       # Number of times Execute suspended instruction fetching (Count)
system.cpu1.icache.demandHits::cpu1.inst      2815822                       # number of demand (read+write) hits (Count)
system.cpu1.icache.demandHits::total          2815822                       # number of demand (read+write) hits (Count)
system.cpu1.icache.overallHits::cpu1.inst      2815822                       # number of overall hits (Count)
system.cpu1.icache.overallHits::total         2815822                       # number of overall hits (Count)
system.cpu1.icache.demandMisses::cpu1.inst         9059                       # number of demand (read+write) misses (Count)
system.cpu1.icache.demandMisses::total           9059                       # number of demand (read+write) misses (Count)
system.cpu1.icache.overallMisses::cpu1.inst         9059                       # number of overall misses (Count)
system.cpu1.icache.overallMisses::total          9059                       # number of overall misses (Count)
system.cpu1.icache.demandAccesses::cpu1.inst      2824881                       # number of demand (read+write) accesses (Count)
system.cpu1.icache.demandAccesses::total      2824881                       # number of demand (read+write) accesses (Count)
system.cpu1.icache.overallAccesses::cpu1.inst      2824881                       # number of overall (read+write) accesses (Count)
system.cpu1.icache.overallAccesses::total      2824881                       # number of overall (read+write) accesses (Count)
system.cpu1.icache.demandMissRate::cpu1.inst     0.003207                       # miss rate for demand accesses (Ratio)
system.cpu1.icache.demandMissRate::total     0.003207                       # miss rate for demand accesses (Ratio)
system.cpu1.icache.overallMissRate::cpu1.inst     0.003207                       # miss rate for overall accesses (Ratio)
system.cpu1.icache.overallMissRate::total     0.003207                       # miss rate for overall accesses (Ratio)
system.cpu1.icache.blockedCycles::no_mshrs            0                       # number of cycles access was blocked (Cycle)
system.cpu1.icache.blockedCycles::no_targets            0                       # number of cycles access was blocked (Cycle)
system.cpu1.icache.blockedCauses::no_mshrs            0                       # number of times access was blocked (Count)
system.cpu1.icache.blockedCauses::no_targets            0                       # number of times access was blocked (Count)
system.cpu1.icache.avgBlocked::no_mshrs           nan                       # average number of cycles each access was blocked ((Cycle/Count))
system.cpu1.icache.avgBlocked::no_targets          nan                       # average number of cycles each access was blocked ((Cycle/Count))
system.cpu1.icache.writebacks::writebacks         8862                       # number of writebacks (Count)
system.cpu1.icache.writebacks::total             8862                       # number of writebacks (Count)
system.cpu1.icache.replacements                  8862                       # number of replacements (Count)
system.cpu1.icache.ReadReq.hits::cpu1.inst      2815822                       # number of ReadReq hits (Count)
system.cpu1.icache.ReadReq.hits::total        2815822                       # number of ReadReq hits (Count)
system.cpu1.icache.ReadReq.misses::cpu1.inst         9059                       # number of ReadReq misses (Count)
system.cpu1.icache.ReadReq.misses::total         9059                       # number of ReadReq misses (Count)
system.cpu1.icache.ReadReq.accesses::cpu1.inst      2824881                       # number of ReadReq accesses(hits+misses) (Count)
system.cpu1.icache.ReadReq.accesses::total      2824881                       # number of ReadReq accesses(hits+misses) (Count)
system.cpu1.icache.ReadReq.missRate::cpu1.inst     0.003207                       # miss rate for ReadReq accesses (Ratio)
system.cpu1.icache.ReadReq.missRate::total     0.003207                       # miss rate for ReadReq accesses (Ratio)
system.cpu1.icache.power_state.pwrStateResidencyTicks::UNDEFINED   2412773500                       # Cumulative time (in ticks) in various power states (Tick)
system.cpu1.icache.tags.tagsInUse          180.083262                       # Average ticks per tags in use ((Tick/Count))
system.cpu1.icache.tags.totalRefs             2824881                       # Total number of references to valid blocks. (Count)
system.cpu1.icache.tags.sampledRefs              9059                       # Sample count of references to valid blocks. (Count)
system.cpu1.icache.tags.avgRefs            311.831438                       # Average number of references to valid blocks. ((Count/Count))
system.cpu1.icache.tags.warmupTick          192393000                       # The tick when the warmup percentage was hit. (Tick)
system.cpu1.icache.tags.occupancies::cpu1.inst   180.083262                       # Average occupied blocks per tick, per requestor ((Count/Tick))
system.cpu1.icache.tags.avgOccs::cpu1.inst     0.703450                       # Average percentage of cache occupancy ((Ratio/Tick))
system.cpu1.icache.tags.avgOccs::total       0.703450                       # Average percentage of cache occupancy ((Ratio/Tick))
system.cpu1.icache.tags.occupanciesTaskId::1024          197                       # Occupied blocks per task id (Count)
system.cpu1.icache.tags.ageTaskId_1024::2           25                       # Occupied blocks per task id, per block age (Count)
system.cpu1.icache.tags.ageTaskId_1024::3          172                       # Occupied blocks per task id, per block age (Count)
system.cpu1.icache.tags.ratioOccsTaskId::1024     0.769531                       # Ratio of occupied blocks and all blocks, per task id (Ratio)
system.cpu1.icache.tags.tagAccesses           5658821                       # Number of tag accesses (Count)
system.cpu1.icache.tags.dataAccesses          5658821                       # Number of data accesses (Count)
system.cpu1.icache.tags.power_state.pwrStateResidencyTicks::UNDEFINED   2412773500                       # Cumulative time (in ticks) in various power states (Tick)
system.cpu1.interrupts.clk_domain.clock          8000                       # Clock period in ticks (Tick)
system.cpu1.itb_walker_cache.blockedCycles::no_mshrs            0                       # number of cycles access was blocked (Cycle)
system.cpu1.itb_walker_cache.blockedCycles::no_targets            0                       # number of cycles access was blocked (Cycle)
system.cpu1.itb_walker_cache.blockedCauses::no_mshrs            0                       # number of times access was blocked (Count)
system.cpu1.itb_walker_cache.blockedCauses::no_targets            0                       # number of times access was blocked (Count)
system.cpu1.itb_walker_cache.avgBlocked::no_mshrs          nan                       # average number of cycles each access was blocked ((Cycle/Count))
system.cpu1.itb_walker_cache.avgBlocked::no_targets          nan                       # average number of cycles each access was blocked ((Cycle/Count))
system.cpu1.itb_walker_cache.replacements            0                       # number of replacements (Count)
system.cpu1.itb_walker_cache.power_state.pwrStateResidencyTicks::UNDEFINED   2412773500                       # Cumulative time (in ticks) in various power states (Tick)
system.cpu1.itb_walker_cache.tags.tagsInUse            0                       # Average ticks per tags in use ((Tick/Count))
system.cpu1.itb_walker_cache.tags.totalRefs            0                       # Total number of references to valid blocks. (Count)
system.cpu1.itb_walker_cache.tags.sampledRefs            0                       # Sample count of references to valid blocks. (Count)
system.cpu1.itb_walker_cache.tags.avgRefs          nan                       # Average number of references to valid blocks. ((Count/Count))
system.cpu1.itb_walker_cache.tags.warmupTick            0                       # The tick when the warmup percentage was hit. (Tick)
system.cpu1.itb_walker_cache.tags.tagAccesses            0                       # Number of tag accesses (Count)
system.cpu1.itb_walker_cache.tags.dataAccesses            0                       # Number of data accesses (Count)
system.cpu1.itb_walker_cache.tags.power_state.pwrStateResidencyTicks::UNDEFINED   2412773500                       # Cumulative time (in ticks) in various power states (Tick)
system.cpu1.mmu.dtb.rdAccesses                 676543                       # TLB accesses on read requests (Count)
system.cpu1.mmu.dtb.wrAccesses                 493986                       # TLB accesses on write requests (Count)
system.cpu1.mmu.dtb.rdMisses                       20                       # TLB misses on read requests (Count)
system.cpu1.mmu.dtb.wrMisses                       14                       # TLB misses on write requests (Count)
system.cpu1.mmu.dtb.walker.power_state.pwrStateResidencyTicks::UNDEFINED   2412773500                       # Cumulative time (in ticks) in various power states (Tick)
system.cpu1.mmu.itb.rdAccesses                      0                       # TLB accesses on read requests (Count)
system.cpu1.mmu.itb.wrAccesses                2824881                       # TLB accesses on write requests (Count)
system.cpu1.mmu.itb.rdMisses                        0                       # TLB misses on read requests (Count)
system.cpu1.mmu.itb.wrMisses                       40                       # TLB misses on write requests (Count)
system.cpu1.mmu.itb.walker.power_state.pwrStateResidencyTicks::UNDEFINED   2412773500                       # Cumulative time (in ticks) in various power states (Tick)
system.cpu1.power_state.pwrStateResidencyTicks::ON   2412773500                       # Cumulative time (in ticks) in various power states (Tick)
[...]
system.mem_ctrls.dram.avgQLat                     nan                       # Average queueing delay per DRAM burst ((Tick/Count))
system.mem_ctrls.dram.avgBusLat                   nan                       # Average bus latency per DRAM burst ((Tick/Count))
system.mem_ctrls.dram.avgMemAccLat                nan                       # Average memory access latency per DRAM burst ((Tick/Count))
system.mem_ctrls.dram.readRowHits                   0                       # Number of row buffer hits during reads (Count)
system.mem_ctrls.dram.writeRowHits                  0                       # Number of row buffer hits during writes (Count)
system.mem_ctrls.dram.readRowHitRate              nan                       # Row buffer hit rate for reads (Ratio)
system.mem_ctrls.dram.writeRowHitRate             nan                       # Row buffer hit rate for writes (Ratio)
system.mem_ctrls.dram.dramBytesRead                 0                       # Total bytes read (Byte)
system.mem_ctrls.dram.dramBytesWritten              0                       # Total bytes written (Byte)
system.mem_ctrls.dram.avgRdBW                       0                       # Average DRAM read bandwidth in MiBytes/s ((Byte/Second))
system.mem_ctrls.dram.avgWrBW                       0                       # Average DRAM write bandwidth in MiBytes/s ((Byte/Second))
system.mem_ctrls.dram.peakBW                 12800.00                       # Theoretical peak bandwidth in MiByte/s ((Byte/Second))
system.mem_ctrls.dram.busUtil                    0.00                       # Data bus utilization in percentage (Ratio)
system.mem_ctrls.dram.busUtilRead                0.00                       # Data bus utilization in percentage for reads (Ratio)
system.mem_ctrls.dram.busUtilWrite               0.00                       # Data bus utilization in percentage for writes (Ratio)
system.mem_ctrls.dram.pageHitRate                 nan                       # Row buffer hit rate, read and write combined (Ratio)
system.mem_ctrls.dram.power_state.pwrStateResidencyTicks::UNDEFINED   2412773500                       # Cumulative time (in ticks) in various power states (Tick)
system.mem_ctrls.dram.rank0.actEnergy               0                       # Energy for activate commands per rank (pJ) (Joule)
system.mem_ctrls.dram.rank0.preEnergy               0                       # Energy for precharge commands per rank (pJ) (Joule)
system.mem_ctrls.dram.rank0.readEnergy              0                       # Energy for read commands per rank (pJ) (Joule)
system.mem_ctrls.dram.rank0.writeEnergy             0                       # Energy for write commands per rank (pJ) (Joule)
system.mem_ctrls.dram.rank0.refreshEnergy            0                       # Energy for refresh commands per rank (pJ) (Joule)
system.mem_ctrls.dram.rank0.actBackEnergy            0                       # Energy for active background per rank (pJ) (Joule)
system.mem_ctrls.dram.rank0.preBackEnergy    926505120                       # Energy for precharge background per rank (pJ) (Joule)
system.mem_ctrls.dram.rank0.actPowerDownEnergy            0                       # Energy for active power-down per rank (pJ) (Joule)
system.mem_ctrls.dram.rank0.prePowerDownEnergy            0                       # Energy for precharge power-down per rank (pJ) (Joule)
system.mem_ctrls.dram.rank0.selfRefreshEnergy            0                       # Energy for self refresh per rank (pJ) (Joule)
system.mem_ctrls.dram.rank0.totalEnergy     926505120                       # Total energy per rank (pJ) (Joule)
system.mem_ctrls.dram.rank0.averagePower   384.000040                       # Core power per rank (mW) (Watt)
system.mem_ctrls.dram.rank0.totalIdleTime            0                       # Total Idle time Per DRAM Rank (Tick)
system.mem_ctrls.dram.rank0.pwrStateTime::IDLE   2412773500                       # Time in different power states (Tick)
system.mem_ctrls.dram.rank0.pwrStateTime::REF            0                       # Time in different power states (Tick)
system.mem_ctrls.dram.rank0.pwrStateTime::SREF            0                       # Time in different power states (Tick)
system.mem_ctrls.dram.rank0.pwrStateTime::PRE_PDN            0                       # Time in different power states (Tick)
system.mem_ctrls.dram.rank0.pwrStateTime::ACT            0                       # Time in different power states (Tick)
system.mem_ctrls.dram.rank0.pwrStateTime::ACT_PDN            0                       # Time in different power states (Tick)
system.mem_ctrls.dram.rank1.actEnergy               0                       # Energy for activate commands per rank (pJ) (Joule)
system.mem_ctrls.dram.rank1.preEnergy               0                       # Energy for precharge commands per rank (pJ) (Joule)
system.mem_ctrls.dram.rank1.readEnergy              0                       # Energy for read commands per rank (pJ) (Joule)
system.mem_ctrls.dram.rank1.writeEnergy             0                       # Energy for write commands per rank (pJ) (Joule)
system.mem_ctrls.dram.rank1.refreshEnergy            0                       # Energy for refresh commands per rank (pJ) (Joule)
system.mem_ctrls.dram.rank1.actBackEnergy            0                       # Energy for active background per rank (pJ) (Joule)
system.mem_ctrls.dram.rank1.preBackEnergy    926505120                       # Energy for precharge background per rank (pJ) (Joule)
system.mem_ctrls.dram.rank1.actPowerDownEnergy            0                       # Energy for active power-down per rank (pJ) (Joule)
system.mem_ctrls.dram.rank1.prePowerDownEnergy            0                       # Energy for precharge power-down per rank (pJ) (Joule)
system.mem_ctrls.dram.rank1.selfRefreshEnergy            0                       # Energy for self refresh per rank (pJ) (Joule)
system.mem_ctrls.dram.rank1.totalEnergy     926505120                       # Total energy per rank (pJ) (Joule)
system.mem_ctrls.dram.rank1.averagePower   384.000040                       # Core power per rank (mW) (Watt)
system.mem_ctrls.dram.rank1.totalIdleTime            0                       # Total Idle time Per DRAM Rank (Tick)
system.mem_ctrls.dram.rank1.pwrStateTime::IDLE   2412773500                       # Time in different power states (Tick)
system.mem_ctrls.dram.rank1.pwrStateTime::REF            0                       # Time in different power states (Tick)
system.mem_ctrls.dram.rank1.pwrStateTime::SREF            0                       # Time in different power states (Tick)
system.mem_ctrls.dram.rank1.pwrStateTime::PRE_PDN            0                       # Time in different power states (Tick)
system.mem_ctrls.dram.rank1.pwrStateTime::ACT            0                       # Time in different power states (Tick)
system.mem_ctrls.dram.rank1.pwrStateTime::ACT_PDN            0                       # Time in different power states (Tick)
system.mem_ctrls.power_state.pwrStateResidencyTicks::UNDEFINED   2412773500                       # Cumulative time (in ticks) in various power states (Tick)
system.membus.transDist::ReadResp                1696                       # Transaction distribution (Count)
system.membus.transDist::CleanEvict                20                       # Transaction distribution (Count)
system.membus.transDist::UpgradeReq               147                       # Transaction distribution (Count)
system.membus.transDist::ReadExReq               1160                       # Transaction distribution (Count)
system.membus.transDist::ReadExResp              1160                       # Transaction distribution (Count)
system.membus.transDist::ReadSharedReq           1696                       # Transaction distribution (Count)
system.membus.pktCount_system.l2.mem_side_port::system.mem_ctrls.port         5879                       # Packet count per connected requestor and responder (Count)
system.membus.pktCount_system.l2.mem_side_port::total         5879                       # Packet count per connected requestor and responder (Count)
system.membus.pktCount::total                    5879                       # Packet count per connected requestor and responder (Count)
system.membus.pktSize_system.l2.mem_side_port::system.mem_ctrls.port       182784                       # Cumulative packet size per connected requestor and responder (Byte)
system.membus.pktSize_system.l2.mem_side_port::total       182784                       # Cumulative packet size per connected requestor and responder (Byte)
system.membus.pktSize::total                   182784                       # Cumulative packet size per connected requestor and responder (Byte)
system.membus.snoops                                0                       # Total snoops (Count)
system.membus.snoopTraffic                          0                       # Total snoop traffic (Byte)
system.membus.snoopFanout::samples               3003                       # Request fanout histogram (Count)
system.membus.snoopFanout::mean                     0                       # Request fanout histogram (Count)
system.membus.snoopFanout::stdev                    0                       # Request fanout histogram (Count)
system.membus.snoopFanout::underflows               0      0.00%      0.00% # Request fanout histogram (Count)
system.membus.snoopFanout::0                     3003    100.00%    100.00% # Request fanout histogram (Count)
system.membus.snoopFanout::1                        0      0.00%    100.00% # Request fanout histogram (Count)
system.membus.snoopFanout::overflows                0      0.00%    100.00% # Request fanout histogram (Count)
system.membus.snoopFanout::min_value                0                       # Request fanout histogram (Count)
system.membus.snoopFanout::max_value                0                       # Request fanout histogram (Count)
system.membus.snoopFanout::total                 3003                       # Request fanout histogram (Count)
system.membus.power_state.pwrStateResidencyTicks::UNDEFINED   2412773500                       # Cumulative time (in ticks) in various power states (Tick)
system.membus.snoop_filter.totRequests           3023                       # Total number of requests made to the snoop filter. (Count)
system.membus.snoop_filter.hitSingleRequests          167                       # Number of requests hitting in the snoop filter with a single holder of the requested data. (Count)
system.membus.snoop_filter.hitMultiRequests            0                       # Number of requests hitting in the snoop filter with multiple (>1) holders of the requested data. (Count)
system.membus.snoop_filter.totSnoops                0                       # Total number of snoops made to the snoop filter. (Count)
system.membus.snoop_filter.hitSingleSnoops            0                       # Number of snoops hitting in the snoop filter with a single holder of the requested data. (Count)
system.membus.snoop_filter.hitMultiSnoops            0                       # Number of snoops hitting in the snoop filter with multiple (>1) holders of the requested data. (Count)
system.tol2bus.transDist::ReadResp              20576                       # Transaction distribution (Count)
system.tol2bus.transDist::WritebackDirty          213                       # Transaction distribution (Count)
system.tol2bus.transDist::WritebackClean        19240                       # Transaction distribution (Count)
system.tol2bus.transDist::CleanEvict              100                       # Transaction distribution (Count)
system.tol2bus.transDist::UpgradeReq              166                       # Transaction distribution (Count)
system.tol2bus.transDist::UpgradeResp             166                       # Transaction distribution (Count)
system.tol2bus.transDist::ReadExReq              2263                       # Transaction distribution (Count)
system.tol2bus.transDist::ReadExResp             2263                       # Transaction distribution (Count)
system.tol2bus.transDist::ReadCleanReq          19934                       # Transaction distribution (Count)
system.tol2bus.transDist::ReadSharedReq           642                       # Transaction distribution (Count)
system.tol2bus.pktCount_system.cpu0.icache.mem_side_port::system.l2.cpu_side_port         5051                       # Packet count per connected requestor and responder (Count)
system.tol2bus.pktCount_system.cpu0.dcache.mem_side_port::system.l2.cpu_side_port         2002                       # Packet count per connected requestor and responder (Count)
system.tol2bus.pktCount_system.cpu1.icache.mem_side_port::system.l2.cpu_side_port        26980                       # Packet count per connected requestor and responder (Count)
system.tol2bus.pktCount_system.cpu1.dcache.mem_side_port::system.l2.cpu_side_port         2498                       # Packet count per connected requestor and responder (Count)
system.tol2bus.pktCount_system.cpu2.icache.mem_side_port::system.l2.cpu_side_port        26986                       # Packet count per connected requestor and responder (Count)
system.tol2bus.pktCount_system.cpu2.dcache.mem_side_port::system.l2.cpu_side_port         1855                       # Packet count per connected requestor and responder (Count)
system.tol2bus.pktCount_system.cpu3.icache.mem_side_port::system.l2.cpu_side_port           91                       # Packet count per connected requestor and responder (Count)
system.tol2bus.pktCount_system.cpu3.dcache.mem_side_port::system.l2.cpu_side_port          100                       # Packet count per connected requestor and responder (Count)
system.tol2bus.pktCount::total                  65563                       # Packet count per connected requestor and responder (Count)
system.tol2bus.pktSize_system.cpu0.icache.mem_side_port::system.l2.cpu_side_port       210048                       # Cumulative packet size per connected requestor and responder (Byte)
system.tol2bus.pktSize_system.cpu0.dcache.mem_side_port::system.l2.cpu_side_port        59648                       # Cumulative packet size per connected requestor and responder (Byte)
system.tol2bus.pktSize_system.cpu1.icache.mem_side_port::system.l2.cpu_side_port      1146944                       # Cumulative packet size per connected requestor and responder (Byte)
system.tol2bus.pktSize_system.cpu1.dcache.mem_side_port::system.l2.cpu_side_port        80000                       # Cumulative packet size per connected requestor and responder (Byte)
system.tol2bus.pktSize_system.cpu2.icache.mem_side_port::system.l2.cpu_side_port      1147200                       # Cumulative packet size per connected requestor and responder (Byte)
system.tol2bus.pktSize_system.cpu2.dcache.mem_side_port::system.l2.cpu_side_port        56960                       # Cumulative packet size per connected requestor and responder (Byte)
system.tol2bus.pktSize_system.cpu3.icache.mem_side_port::system.l2.cpu_side_port         2944                       # Cumulative packet size per connected requestor and responder (Byte)
system.tol2bus.pktSize_system.cpu3.dcache.mem_side_port::system.l2.cpu_side_port         2944                       # Cumulative packet size per connected requestor and responder (Byte)
system.tol2bus.pktSize::total                 2706688                       # Cumulative packet size per connected requestor and responder (Byte)
system.tol2bus.snoops                              31                       # Total snoops (Count)
system.tol2bus.snoopTraffic                         0                       # Total snoop traffic (Byte)
system.tol2bus.snoopFanout::samples             23036                       # Request fanout histogram (Count)
system.tol2bus.snoopFanout::mean             0.936838                       # Request fanout histogram (Count)
system.tol2bus.snoopFanout::stdev            0.886311                       # Request fanout histogram (Count)
system.tol2bus.snoopFanout::underflows              0      0.00%      0.00% # Request fanout histogram (Count)
system.tol2bus.snoopFanout::0                    8276     35.93%     35.93% # Request fanout histogram (Count)
system.tol2bus.snoopFanout::1                    9484     41.17%     77.10% # Request fanout histogram (Count)
system.tol2bus.snoopFanout::2                    3731     16.20%     93.29% # Request fanout histogram (Count)
system.tol2bus.snoopFanout::3                    1545      6.71%    100.00% # Request fanout histogram (Count)
system.tol2bus.snoopFanout::4                       0      0.00%    100.00% # Request fanout histogram (Count)
system.tol2bus.snoopFanout::5                       0      0.00%    100.00% # Request fanout histogram (Count)
system.tol2bus.snoopFanout::6                       0      0.00%    100.00% # Request fanout histogram (Count)
system.tol2bus.snoopFanout::7                       0      0.00%    100.00% # Request fanout histogram (Count)
system.tol2bus.snoopFanout::8                       0      0.00%    100.00% # Request fanout histogram (Count)
system.tol2bus.snoopFanout::9                       0      0.00%    100.00% # Request fanout histogram (Count)
system.tol2bus.snoopFanout::10                      0      0.00%    100.00% # Request fanout histogram (Count)
system.tol2bus.snoopFanout::11                      0      0.00%    100.00% # Request fanout histogram (Count)
system.tol2bus.snoopFanout::12                      0      0.00%    100.00% # Request fanout histogram (Count)
system.tol2bus.snoopFanout::13                      0      0.00%    100.00% # Request fanout histogram (Count)
system.tol2bus.snoopFanout::14                      0      0.00%    100.00% # Request fanout histogram (Count)
system.tol2bus.snoopFanout::15                      0      0.00%    100.00% # Request fanout histogram (Count)
system.tol2bus.snoopFanout::16                      0      0.00%    100.00% # Request fanout histogram (Count)
system.tol2bus.snoopFanout::overflows               0      0.00%    100.00% # Request fanout histogram (Count)
system.tol2bus.snoopFanout::min_value               0                       # Request fanout histogram (Count)
system.tol2bus.snoopFanout::max_value               3                       # Request fanout histogram (Count)
system.tol2bus.snoopFanout::total               23036                       # Request fanout histogram (Count)
system.tol2bus.power_state.pwrStateResidencyTicks::UNDEFINED   2412773500                       # Cumulative time (in ticks) in various power states (Tick)
system.tol2bus.snoop_filter.totRequests         42558                       # Total number of requests made to the snoop filter. (Count)
system.tol2bus.snoop_filter.hitSingleRequests        15873                       # Number of requests hitting in the snoop filter with a single holder of the requested data. (Count)
system.tol2bus.snoop_filter.hitMultiRequests        18429                       # Number of requests hitting in the snoop filter with multiple (>1) holders of the requested data. (Count)
system.tol2bus.snoop_filter.totSnoops              11                       # Total number of snoops made to the snoop filter. (Count)
system.tol2bus.snoop_filter.hitSingleSnoops           11                       # Number of snoops hitting in the snoop filter with a single holder of the requested data. (Count)
system.tol2bus.snoop_filter.hitMultiSnoops            0                       # Number of snoops hitting in the snoop filter with multiple (>1) holders of the requested data. (Count)
system.voltage_domain.voltage                       1                       # Voltage in Volts (Volt)
system.workload.inst.arm                            0                       # number of arm instructions executed (Count)
system.workload.inst.quiesce                        0                       # number of quiesce instructions executed (Count)

---------- End Simulation Statistics   ----------
