
---------- Begin Simulation Statistics ----------
simSeconds                                   0.319440                       # Number of seconds simulated (Second)
simTicks                                 319440205000                       # Number of ticks simulated (Tick)
finalTick                                319440205000                       # Number of ticks from beginning of simulation (restored from checkpoints and never reset) (Tick)
simFreq                                  1000000000000                       # The number of ticks per simulated second ((Tick/Second))
hostSeconds                                  42293.83                       # Real time elapsed on the host (Second)
hostTickRate                                  7552879                       # The number of ticks simulated per host second (ticks/s) ((Tick/Second))
hostMemory                                     931516                       # Number of bytes of host memory used (Byte)
simInsts                                   2563296514                       # Number of instructions simulated (Count)
simOps                                     4023540379                       # Number of ops (including micro ops) simulated (Count)
hostInstRate                                    60607                       # Simulator instruction rate (inst/s) ((Count/Second))
hostOpRate                                      95133                       # Simulator op (including micro ops) rate (op/s) ((Count/Second))
system.clk_domain.clock                          1000                       # Clock period in ticks (Tick)
system.cpu0.numCycles                       240387476                       # Number of cpu cycles simulated (Cycle)
system.cpu0.cpi                              1.206789                       # CPI: cycles per instruction (core level) ((Cycle/Count))
system.cpu0.ipc                              0.828645                       # IPC: instructions per cycle (core level) ((Count/Cycle))
system.cpu0.numWorkItemsStarted                     0                       # Number of work items this cpu started (Count)
system.cpu0.numWorkItemsCompleted                   0                       # Number of work items this cpu completed (Count)
system.cpu0.instsAdded                      452828772                       # Number of instructions added to the IQ (excludes non-spec) (Count)
system.cpu0.nonSpecInstsAdded                 9194706                       # Number of non-speculative instructions added to the IQ (Count)
system.cpu0.instsIssued                     434839560                       # Number of instructions issued (Count)
system.cpu0.squashedInstsIssued                366159                       # Number of squashed instructions issued (Count)
system.cpu0.squashedInstsExamined           118582424                       # Number of squashed instructions iterated over during squash; mainly for profiling (Count)
system.cpu0.squashedOperandsExamined        134824118                       # Number of squashed operands that are examined and possibly removed from graph (Count)
system.cpu0.squashedNonSpecRemoved            3194081                       # Number of squashed non-spec instructions that were removed (Count)
system.cpu0.numIssuedDist::samples          240204355                       # Number of insts issued each cycle (Count)
system.cpu0.numIssuedDist::mean              1.810290                       # Number of insts issued each cycle (Count)
system.cpu0.numIssuedDist::stdev             2.129936                       # Number of insts issued each cycle (Count)
system.cpu0.numIssuedDist::underflows               0      0.00%      0.00% # Number of insts issued each cycle (Count)
system.cpu0.numIssuedDist::0                 99417059     41.39%     41.39% # Number of insts issued each cycle (Count)
system.cpu0.numIssuedDist::1                 39911477     16.62%     58.00% # Number of insts issued each cycle (Count)
system.cpu0.numIssuedDist::2                 28897127     12.03%     70.03% # Number of insts issued each cycle (Count)
system.cpu0.numIssuedDist::3                 18257059      7.60%     77.64% # Number of insts issued each cycle (Count)
system.cpu0.numIssuedDist::4                 17480490      7.28%     84.91% # Number of insts issued each cycle (Count)
system.cpu0.numIssuedDist::5                 16133722      6.72%     91.63% # Number of insts issued each cycle (Count)
system.cpu0.numIssuedDist::6                 11746884      4.89%     96.52% # Number of insts issued each cycle (Count)
system.cpu0.numIssuedDist::7                  5593518      2.33%     98.85% # Number of insts issued each cycle (Count)
system.cpu0.numIssuedDist::8                  2767019      1.15%    100.00% # Number of insts issued each cycle (Count)
system.cpu0.numIssuedDist::overflows                0      0.00%    100.00% # Number of insts issued each cycle (Count)
system.cpu0.numIssuedDist::min_value                0                       # Number of insts issued each cycle (Count)
system.cpu0.numIssuedDist::max_value                8                       # Number of insts issued each cycle (Count)
system.cpu0.numIssuedDist::total            240204355                       # Number of insts issued each cycle (Count)
system.cpu0.statFuBusy::No_OpClass                  0      0.00%      0.00% # attempts to use FU when none available (Count)
system.cpu0.statFuBusy::IntAlu                1874924     13.21%     13.21% # attempts to use FU when none available (Count)
system.cpu0.statFuBusy::IntMult                     0      0.00%     13.21% # attempts to use FU when none available (Count)
system.cpu0.statFuBusy::IntDiv                      0      0.00%     13.21% # attempts to use FU when none available (Count)
system.cpu0.statFuBusy::FloatAdd                    0      0.00%     13.21% # attempts to use FU when none available (Count)
system.cpu0.statFuBusy::FloatCmp                    0      0.00%     13.21% # attempts to use FU when none available (Count)
system.cpu0.statFuBusy::FloatCvt                    0      0.00%     13.21% # attempts to use FU when none available (Count)
system.cpu0.statFuBusy::FloatMult                   0      0.00%     13.21% # attempts to use FU when none available (Count)
system.cpu0.statFuBusy::FloatMultAcc                0      0.00%     13.21% # attempts to use FU when none available (Count)
system.cpu0.statFuBusy::FloatDiv                    0      0.00%     13.21% # attempts to use FU when none available (Count)
system.cpu0.statFuBusy::FloatMisc                   0      0.00%     13.21% # attempts to use FU when none available (Count)
system.cpu0.statFuBusy::FloatSqrt                   0      0.00%     13.21% # attempts to use FU when none available (Count)
system.cpu0.statFuBusy::SimdAdd                     0      0.00%     13.21% # attempts to use FU when none available (Count)
system.cpu0.statFuBusy::SimdAddAcc                  0      0.00%     13.21% # attempts to use FU when none available (Count)
system.cpu0.statFuBusy::SimdAlu                   115      0.00%     13.21% # attempts to use FU when none available (Count)
system.cpu0.statFuBusy::SimdCmp                     0      0.00%     13.21% # attempts to use FU when none available (Count)
system.cpu0.statFuBusy::SimdCvt                     6      0.00%     13.21% # attempts to use FU when none available (Count)
system.cpu0.statFuBusy::SimdMisc                   10      0.00%     13.21% # attempts to use FU when none available (Count)
system.cpu0.statFuBusy::SimdMult                    0      0.00%     13.21% # attempts to use FU when none available (Count)
system.cpu0.statFuBusy::SimdMultAcc                 0      0.00%     13.21% # attempts to use FU when none available (Count)
system.cpu0.statFuBusy::SimdMatMultAcc              0      0.00%     13.21% # attempts to use FU when none available (Count)
system.cpu0.statFuBusy::SimdShift                   0      0.00%     13.21% # attempts to use FU when none available (Count)
system.cpu0.statFuBusy::SimdShiftAcc                0      0.00%     13.21% # attempts to use FU when none available (Count)
system.cpu0.statFuBusy::SimdDiv                     0      0.00%     13.21% # attempts to use FU when none available (Count)
system.cpu0.statFuBusy::SimdSqrt                    0      0.00%     13.21% # attempts to use FU when none available (Count)
system.cpu0.statFuBusy::SimdFloatAdd                1      0.00%     13.21% # attempts to use FU when none available (Count)
system.cpu0.statFuBusy::SimdFloatAlu                0      0.00%     13.21% # attempts to use FU when none available (Count)
system.cpu0.statFuBusy::SimdFloatCmp                0      0.00%     13.21% # attempts to use FU when none available (Count)
system.cpu0.statFuBusy::SimdFloatCvt                0      0.00%     13.21% # attempts to use FU when none available (Count)
system.cpu0.statFuBusy::SimdFloatDiv                0      0.00%     13.21% # attempts to use FU when none available (Count)
system.cpu0.statFuBusy::SimdFloatMisc               0      0.00%     13.21% # attempts to use FU when none available (Count)
system.cpu0.statFuBusy::SimdFloatMult               0      0.00%     13.21% # attempts to use FU when none available (Count)
system.cpu0.statFuBusy::SimdFloatMultAcc            0      0.00%     13.21% # attempts to use FU when none available (Count)
system.cpu0.statFuBusy::SimdFloatMatMultAcc            0      0.00%     13.21% # attempts to use FU when none available (Count)
system.cpu0.statFuBusy::SimdFloatSqrt               0      0.00%     13.21% # attempts to use FU when none available (Count)
system.cpu0.statFuBusy::SimdReduceAdd               0      0.00%     13.21% # attempts to use FU when none available (Count)
system.cpu0.statFuBusy::SimdReduceAlu               0      0.00%     13.21% # attempts to use FU when none available (Count)
system.cpu0.statFuBusy::SimdReduceCmp               0      0.00%     13.21% # attempts to use FU when none available (Count)
system.cpu0.statFuBusy::SimdFloatReduceAdd            0      0.00%     13.21% # attempts to use FU when none available (Count)
system.cpu0.statFuBusy::SimdFloatReduceCmp            0      0.00%     13.21% # attempts to use FU when none available (Count)
system.cpu0.statFuBusy::SimdAes                     0      0.00%     13.21% # attempts to use FU when none available (Count)
system.cpu0.statFuBusy::SimdAesMix                  0      0.00%     13.21% # attempts to use FU when none available (Count)
system.cpu0.statFuBusy::SimdSha1Hash                0      0.00%     13.21% # attempts to use FU when none available (Count)
system.cpu0.statFuBusy::SimdSha1Hash2               0      0.00%     13.21% # attempts to use FU when none available (Count)
system.cpu0.statFuBusy::SimdSha256Hash              0      0.00%     13.21% # attempts to use FU when none available (Count)
system.cpu0.statFuBusy::SimdSha256Hash2             0      0.00%     13.21% # attempts to use FU when none available (Count)
system.cpu0.statFuBusy::SimdShaSigma2               0      0.00%     13.21% # attempts to use FU when none available (Count)
system.cpu0.statFuBusy::SimdShaSigma3               0      0.00%     13.21% # attempts to use FU when none available (Count)
system.cpu0.statFuBusy::SimdPredAlu                 0      0.00%     13.21% # attempts to use FU when none available (Count)
system.cpu0.statFuBusy::Matrix                      0      0.00%     13.21% # attempts to use FU when none available (Count)
system.cpu0.statFuBusy::MatrixMov                   0      0.00%     13.21% # attempts to use FU when none available (Count)
system.cpu0.statFuBusy::MatrixOP                    0      0.00%     13.21% # attempts to use FU when none available (Count)
system.cpu0.statFuBusy::MemRead               4200410     29.59%     42.80% # attempts to use FU when none available (Count)
system.cpu0.statFuBusy::MemWrite              4896502     34.50%     77.30% # attempts to use FU when none available (Count)
system.cpu0.statFuBusy::FloatMemRead          1466521     10.33%     87.63% # attempts to use FU when none available (Count)
system.cpu0.statFuBusy::FloatMemWrite         1755212     12.37%    100.00% # attempts to use FU when none available (Count)
system.cpu0.statFuBusy::IprAccess                   0      0.00%    100.00% # attempts to use FU when none available (Count)
system.cpu0.statFuBusy::InstPrefetch                0      0.00%    100.00% # attempts to use FU when none available (Count)
system.cpu0.statFuBusy::SimdUnitStrideLoad            0      0.00%    100.00% # attempts to use FU when none available (Count)
system.cpu0.statFuBusy::SimdUnitStrideStore            0      0.00%    100.00% # attempts to use FU when none available (Count)
system.cpu0.statFuBusy::SimdUnitStrideMaskLoad            0      0.00%    100.00% # attempts to use FU when none available (Count)
system.cpu0.statFuBusy::SimdUnitStrideMaskStore            0      0.00%    100.00% # attempts to use FU when none available (Count)
system.cpu0.statFuBusy::SimdStridedLoad             0      0.00%    100.00% # attempts to use FU when none available (Count)
system.cpu0.statFuBusy::SimdStridedStore            0      0.00%    100.00% # attempts to use FU when none available (Count)
system.cpu0.statFuBusy::SimdIndexedLoad             0      0.00%    100.00% # attempts to use FU when none available (Count)
system.cpu0.statFuBusy::SimdIndexedStore            0      0.00%    100.00% # attempts to use FU when none available (Count)
system.cpu0.statFuBusy::SimdWholeRegisterLoad            0      0.00%    100.00% # attempts to use FU when none available (Count)
system.cpu0.statFuBusy::SimdWholeRegisterStore            0      0.00%    100.00% # attempts to use FU when none available (Count)
system.cpu0.statFuBusy::SimdUnitStrideFaultOnlyFirstLoad            0      0.00%    100.00% # attempts to use FU when none available (Count)
system.cpu0.statFuBusy::SimdUnitStrideSegmentedLoad            0      0.00%    100.00% # attempts to use FU when none available (Count)
system.cpu0.statFuBusy::SimdUnitStrideSegmentedStore            0      0.00%    100.00% # attempts to use FU when none available (Count)
system.cpu0.statFuBusy::SimdUnitStrideSegmentedFaultOnlyFirstLoad            0      0.00%    100.00% # attempts to use FU when none available (Count)
system.cpu0.statFuBusy::SimdStrideSegmentedLoad            0      0.00%    100.00% # attempts to use FU when none available (Count)
system.cpu0.statFuBusy::SimdStrideSegmentedStore            0      0.00%    100.00% # attempts to use FU when none available (Count)
system.cpu0.statFuBusy::SimdExt                     0      0.00%    100.00% # attempts to use FU when none available (Count)
system.cpu0.statFuBusy::SimdFloatExt                0      0.00%    100.00% # attempts to use FU when none available (Count)
system.cpu0.statFuBusy::SimdConfig                  0      0.00%    100.00% # attempts to use FU when none available (Count)
system.cpu0.statIssuedInstType_0::No_OpClass     14094515      3.24%      3.24% # Number of instructions issued per FU type, per thread (Count)
system.cpu0.statIssuedInstType_0::IntAlu    275802802     63.43%     66.67% # Number of instructions issued per FU type, per thread (Count)
system.cpu0.statIssuedInstType_0::IntMult      2000176      0.46%     67.13% # Number of instructions issued per FU type, per thread (Count)
system.cpu0.statIssuedInstType_0::IntDiv           95      0.00%     67.13% # Number of instructions issued per FU type, per thread (Count)
system.cpu0.statIssuedInstType_0::FloatAdd      2130847      0.49%     67.62% # Number of instructions issued per FU type, per thread (Count)
system.cpu0.statIssuedInstType_0::FloatCmp            0      0.00%     67.62% # Number of instructions issued per FU type, per thread (Count)
system.cpu0.statIssuedInstType_0::FloatCvt            0      0.00%     67.62% # Number of instructions issued per FU type, per thread (Count)
system.cpu0.statIssuedInstType_0::FloatMult            0      0.00%     67.62% # Number of instructions issued per FU type, per thread (Count)
system.cpu0.statIssuedInstType_0::FloatMultAcc            0      0.00%     67.62% # Number of instructions issued per FU type, per thread (Count)
system.cpu0.statIssuedInstType_0::FloatDiv            0      0.00%     67.62% # Number of instructions issued per FU type, per thread (Count)
system.cpu0.statIssuedInstType_0::FloatMisc            0      0.00%     67.62% # Number of instructions issued per FU type, per thread (Count)
system.cpu0.statIssuedInstType_0::FloatSqrt            0      0.00%     67.62% # Number of instructions issued per FU type, per thread (Count)
system.cpu0.statIssuedInstType_0::SimdAdd           28      0.00%     67.62% # Number of instructions issued per FU type, per thread (Count)
system.cpu0.statIssuedInstType_0::SimdAddAcc            0      0.00%     67.62% # Number of instructions issued per FU type, per thread (Count)
system.cpu0.statIssuedInstType_0::SimdAlu         1136      0.00%     67.62% # Number of instructions issued per FU type, per thread (Count)
system.cpu0.statIssuedInstType_0::SimdCmp            6      0.00%     67.62% # Number of instructions issued per FU type, per thread (Count)
system.cpu0.statIssuedInstType_0::SimdCvt          518      0.00%     67.62% # Number of instructions issued per FU type, per thread (Count)
system.cpu0.statIssuedInstType_0::SimdMisc      2131569      0.49%     68.11% # Number of instructions issued per FU type, per thread (Count)
system.cpu0.statIssuedInstType_0::SimdMult            0      0.00%     68.11% # Number of instructions issued per FU type, per thread (Count)
system.cpu0.statIssuedInstType_0::SimdMultAcc            0      0.00%     68.11% # Number of instructions issued per FU type, per thread (Count)
system.cpu0.statIssuedInstType_0::SimdMatMultAcc            0      0.00%     68.11% # Number of instructions issued per FU type, per thread (Count)
system.cpu0.statIssuedInstType_0::SimdShift            0      0.00%     68.11% # Number of instructions issued per FU type, per thread (Count)
system.cpu0.statIssuedInstType_0::SimdShiftAcc            0      0.00%     68.11% # Number of instructions issued per FU type, per thread (Count)
system.cpu0.statIssuedInstType_0::SimdDiv            0      0.00%     68.11% # Number of instructions issued per FU type, per thread (Count)
system.cpu0.statIssuedInstType_0::SimdSqrt            0      0.00%     68.11% # Number of instructions issued per FU type, per thread (Count)
system.cpu0.statIssuedInstType_0::SimdFloatAdd           19      0.00%     68.11% # Number of instructions issued per FU type, per thread (Count)
system.cpu0.statIssuedInstType_0::SimdFloatAlu            0      0.00%     68.11% # Number of instructions issued per FU type, per thread (Count)
system.cpu0.statIssuedInstType_0::SimdFloatCmp            0      0.00%     68.11% # Number of instructions issued per FU type, per thread (Count)
system.cpu0.statIssuedInstType_0::SimdFloatCvt            9      0.00%     68.11% # Number of instructions issued per FU type, per thread (Count)
system.cpu0.statIssuedInstType_0::SimdFloatDiv            2      0.00%     68.11% # Number of instructions issued per FU type, per thread (Count)
system.cpu0.statIssuedInstType_0::SimdFloatMisc            0      0.00%     68.11% # Number of instructions issued per FU type, per thread (Count)
system.cpu0.statIssuedInstType_0::SimdFloatMult           12      0.00%     68.11% # Number of instructions issued per FU type, per thread (Count)
system.cpu0.statIssuedInstType_0::SimdFloatMultAcc            0      0.00%     68.11% # Number of instructions issued per FU type, per thread (Count)
system.cpu0.statIssuedInstType_0::SimdFloatMatMultAcc            0      0.00%     68.11% # Number of instructions issued per FU type, per thread (Count)
system.cpu0.statIssuedInstType_0::SimdFloatSqrt            0      0.00%     68.11% # Number of instructions issued per FU type, per thread (Count)
system.cpu0.statIssuedInstType_0::SimdReduceAdd            0      0.00%     68.11% # Number of instructions issued per FU type, per thread (Count)
system.cpu0.statIssuedInstType_0::SimdReduceAlu            0      0.00%     68.11% # Number of instructions issued per FU type, per thread (Count)
system.cpu0.statIssuedInstType_0::SimdReduceCmp            0      0.00%     68.11% # Number of instructions issued per FU type, per thread (Count)
system.cpu0.statIssuedInstType_0::SimdFloatReduceAdd            0      0.00%     68.11% # Number of instructions issued per FU type, per thread (Count)
system.cpu0.statIssuedInstType_0::SimdFloatReduceCmp            0      0.00%     68.11% # Number of instructions issued per FU type, per thread (Count)
system.cpu0.statIssuedInstType_0::SimdAes            0      0.00%     68.11% # Number of instructions issued per FU type, per thread (Count)
system.cpu0.statIssuedInstType_0::SimdAesMix            0      0.00%     68.11% # Number of instructions issued per FU type, per thread (Count)
system.cpu0.statIssuedInstType_0::SimdSha1Hash            0      0.00%     68.11% # Number of instructions issued per FU type, per thread (Count)
system.cpu0.statIssuedInstType_0::SimdSha1Hash2            0      0.00%     68.11% # Number of instructions issued per FU type, per thread (Count)
system.cpu0.statIssuedInstType_0::SimdSha256Hash            0      0.00%     68.11% # Number of instructions issued per FU type, per thread (Count)
system.cpu0.statIssuedInstType_0::SimdSha256Hash2            0      0.00%     68.11% # Number of instructions issued per FU type, per thread (Count)
system.cpu0.statIssuedInstType_0::SimdShaSigma2            0      0.00%     68.11% # Number of instructions issued per FU type, per thread (Count)
system.cpu0.statIssuedInstType_0::SimdShaSigma3            0      0.00%     68.11% # Number of instructions issued per FU type, per thread (Count)
system.cpu0.statIssuedInstType_0::SimdPredAlu            0      0.00%     68.11% # Number of instructions issued per FU type, per thread (Count)
system.cpu0.statIssuedInstType_0::Matrix            0      0.00%     68.11% # Number of instructions issued per FU type, per thread (Count)
system.cpu0.statIssuedInstType_0::MatrixMov            0      0.00%     68.11% # Number of instructions issued per FU type, per thread (Count)
system.cpu0.statIssuedInstType_0::MatrixOP            0      0.00%     68.11% # Number of instructions issued per FU type, per thread (Count)
system.cpu0.statIssuedInstType_0::MemRead     79555016     18.30%     86.40% # Number of instructions issued per FU type, per thread (Count)
system.cpu0.statIssuedInstType_0::MemWrite     45405273     10.44%     96.85% # Number of instructions issued per FU type, per thread (Count)
system.cpu0.statIssuedInstType_0::FloatMemRead      6110744      1.41%     98.25% # Number of instructions issued per FU type, per thread (Count)
system.cpu0.statIssuedInstType_0::FloatMemWrite      7606793      1.75%    100.00% # Number of instructions issued per FU type, per thread (Count)
system.cpu0.statIssuedInstType_0::IprAccess            0      0.00%    100.00% # Number of instructions issued per FU type, per thread (Count)
system.cpu0.statIssuedInstType_0::InstPrefetch            0      0.00%    100.00% # Number of instructions issued per FU type, per thread (Count)
system.cpu0.statIssuedInstType_0::SimdUnitStrideLoad            0      0.00%    100.00% # Number of instructions issued per FU type, per thread (Count)
system.cpu0.statIssuedInstType_0::SimdUnitStrideStore            0      0.00%    100.00% # Number of instructions issued per FU type, per thread (Count)
system.cpu0.statIssuedInstType_0::SimdUnitStrideMaskLoad            0      0.00%    100.00% # Number of instructions issued per FU type, per thread (Count)
system.cpu0.statIssuedInstType_0::SimdUnitStrideMaskStore            0      0.00%    100.00% # Number of instructions issued per FU type, per thread (Count)
system.cpu0.statIssuedInstType_0::SimdStridedLoad            0      0.00%    100.00% # Number of instructions issued per FU type, per thread (Count)
system.cpu0.statIssuedInstType_0::SimdStridedStore            0      0.00%    100.00% # Number of instructions issued per FU type, per thread (Count)
system.cpu0.statIssuedInstType_0::SimdIndexedLoad            0      0.00%    100.00% # Number of instructions issued per FU type, per thread (Count)
system.cpu0.statIssuedInstType_0::SimdIndexedStore            0      0.00%    100.00% # Number of instructions issued per FU type, per thread (Count)
system.cpu0.statIssuedInstType_0::SimdWholeRegisterLoad            0      0.00%    100.00% # Number of instructions issued per FU type, per thread (Count)
system.cpu0.statIssuedInstType_0::SimdWholeRegisterStore            0      0.00%    100.00% # Number of instructions issued per FU type, per thread (Count)
system.cpu0.statIssuedInstType_0::SimdUnitStrideFaultOnlyFirstLoad            0      0.00%    100.00% # Number of instructions issued per FU type, per thread (Count)
system.cpu0.statIssuedInstType_0::SimdUnitStrideSegmentedLoad            0      0.00%    100.00% # Number of instructions issued per FU type, per thread (Count)
system.cpu0.statIssuedInstType_0::SimdUnitStrideSegmentedStore            0      0.00%    100.00% # Number of instructions issued per FU type, per thread (Count)
system.cpu0.statIssuedInstType_0::SimdUnitStrideSegmentedFaultOnlyFirstLoad            0      0.00%    100.00% # Number of instructions issued per FU type, per thread (Count)
system.cpu0.statIssuedInstType_0::SimdStrideSegmentedLoad            0      0.00%    100.00% # Number of instructions issued per FU type, per thread (Count)
system.cpu0.statIssuedInstType_0::SimdStrideSegmentedStore            0      0.00%    100.00% # Number of instructions issued per FU type, per thread (Count)
system.cpu0.statIssuedInstType_0::SimdExt            0      0.00%    100.00% # Number of instructions issued per FU type, per thread (Count)
system.cpu0.statIssuedInstType_0::SimdFloatExt            0      0.00%    100.00% # Number of instructions issued per FU type, per thread (Count)
system.cpu0.statIssuedInstType_0::SimdConfig            0      0.00%    100.00% # Number of instructions issued per FU type, per thread (Count)
system.cpu0.statIssuedInstType_0::total     434839560                       # Number of instructions issued per FU type, per thread (Count)
system.cpu0.issueRate                        1.808911                       # Inst issue rate ((Count/Cycle))
system.cpu0.fuBusy                           14193701                       # FU busy when requested (Count)
system.cpu0.fuBusyRate                       0.032641                       # FU busy rate (busy events/executed inst) ((Count/Count))
system.cpu0.intInstQueueReads              1082761192                       # Number of integer instruction queue reads (Count)
system.cpu0.intInstQueueWrites              553124134                       # Number of integer instruction queue writes (Count)
system.cpu0.intInstQueueWakeupAccesses      410345092                       # Number of integer instruction queue wakeup accesses (Count)
system.cpu0.fpInstQueueReads                 41682143                       # Number of floating instruction queue reads (Count)
system.cpu0.fpInstQueueWrites                29417370                       # Number of floating instruction queue writes (Count)
system.cpu0.fpInstQueueWakeupAccesses        16965838                       # Number of floating instruction queue wakeup accesses (Count)
system.cpu0.vecInstQueueReads                       0                       # Number of vector instruction queue reads (Count)
system.cpu0.vecInstQueueWrites                      0                       # Number of vector instruction queue writes (Count)
system.cpu0.vecInstQueueWakeupAccesses              0                       # Number of vector instruction queue wakeup accesses (Count)
system.cpu0.intAluAccesses                  412669587                       # Number of integer alu accesses (Count)
system.cpu0.fpAluAccesses                    22269159                       # Number of floating point alu accesses (Count)
system.cpu0.vecAluAccesses                          0                       # Number of vector alu accesses (Count)
system.cpu0.numRecvResp                      92527929                       # Number of received responses (Count)
system.cpu0.numRecvRespBytes                611599990                       # Number of received response bytes (Byte)
system.cpu0.recvRespAvgBW                        2.54                       # Average bandwidth of received responses ((Byte/Cycle))
system.cpu0.recvRespAvgSize                      6.61                       # Average packet size per received response ((Byte/Count))
system.cpu0.recvRespAvgRate                      0.38                       # Average rate of received responses per cycle ((Count/Cycle))
system.cpu0.recvRespAvgRetryRate                 0.00                       # Average retry rate per received response ((Count/Count))
system.cpu0.numSendRetryResp                        0                       # Number of retry responses sent (Count)
system.cpu0.numSquashedInsts                  2458654                       # Number of squashed instructions skipped in execute (Count)
system.cpu0.numSwp                                  0                       # Number of swp insts executed (Count)
system.cpu0.timesIdled                           1548                       # Number of times that the entire CPU went into an idle state and unscheduled itself (Count)
system.cpu0.idleCycles                         183121                       # Total number of cycles that the CPU has spent unscheduled due to idling (Cycle)
system.cpu0.quiesceCycles                   398492935                       # Total number of cycles that CPU has spent quiesced or waiting for an interrupt (Cycle)
system.cpu0.MemDepUnit__0.insertedLoads      93702989                       # Number of loads inserted to the mem dependence unit. (Count)
system.cpu0.MemDepUnit__0.insertedStores     56780155                       # Number of stores inserted to the mem dependence unit. (Count)
system.cpu0.MemDepUnit__0.conflictingLoads     46669007                       # Number of conflicting loads. (Count)
system.cpu0.MemDepUnit__0.conflictingStores     21859633                       # Number of conflicting stores. (Count)
system.cpu0.MemDepUnit__1.insertedLoads             0                       # Number of loads inserted to the mem dependence unit. (Count)
system.cpu0.MemDepUnit__1.insertedStores            0                       # Number of stores inserted to the mem dependence unit. (Count)
system.cpu0.MemDepUnit__1.conflictingLoads            0                       # Number of conflicting loads. (Count)
system.cpu0.MemDepUnit__1.conflictingStores            0                       # Number of conflicting stores. (Count)
system.cpu0.MemDepUnit__2.insertedLoads             0                       # Number of loads inserted to the mem dependence unit. (Count)
system.cpu0.MemDepUnit__2.insertedStores            0                       # Number of stores inserted to the mem dependence unit. (Count)
system.cpu0.MemDepUnit__2.conflictingLoads            0                       # Number of conflicting loads. (Count)
system.cpu0.MemDepUnit__2.conflictingStores            0                       # Number of conflicting stores. (Count)
system.cpu0.MemDepUnit__3.insertedLoads             0                       # Number of loads inserted to the mem dependence unit. (Count)
system.cpu0.MemDepUnit__3.insertedStores            0                       # Number of stores inserted to the mem dependence unit. (Count)
system.cpu0.MemDepUnit__3.conflictingLoads            0                       # Number of conflicting loads. (Count)
system.cpu0.MemDepUnit__3.conflictingStores            0                       # Number of conflicting stores. (Count)
system.cpu0.branchPred.lookups_0::NoBranch            0      0.00%      0.00% # Number of BP lookups (Count)
system.cpu0.branchPred.lookups_0::Return     10665135     21.97%     21.97% # Number of BP lookups (Count)
system.cpu0.branchPred.lookups_0::CallDirect     11662967     24.03%     46.00% # Number of BP lookups (Count)
system.cpu0.branchPred.lookups_0::CallIndirect          510      0.00%     46.01% # Number of BP lookups (Count)
system.cpu0.branchPred.lookups_0::DirectCond     23607402     48.64%     94.65% # Number of BP lookups (Count)
system.cpu0.branchPred.lookups_0::DirectUncond      2597913      5.35%    100.00% # Number of BP lookups (Count)
system.cpu0.branchPred.lookups_0::IndirectCond            0      0.00%    100.00% # Number of BP lookups (Count)
system.cpu0.branchPred.lookups_0::IndirectUncond         1045      0.00%    100.00% # Number of BP lookups (Count)
system.cpu0.branchPred.lookups_0::total      48534972                       # Number of BP lookups (Count)
system.cpu0.branchPred.squashes_0::NoBranch            0      0.00%      0.00% # Number of branches that got squashed (completely removed) as an earlier branch was mispredicted. (Count)
system.cpu0.branchPred.squashes_0::Return      2663085     16.16%     16.16% # Number of branches that got squashed (completely removed) as an earlier branch was mispredicted. (Count)
system.cpu0.branchPred.squashes_0::CallDirect      3661204     22.22%     38.38% # Number of branches that got squashed (completely removed) as an earlier branch was mispredicted. (Count)
system.cpu0.branchPred.squashes_0::CallIndirect          218      0.00%     38.38% # Number of branches that got squashed (completely removed) as an earlier branch was mispredicted. (Count)
system.cpu0.branchPred.squashes_0::DirectCond      8991996     54.57%     92.95% # Number of branches that got squashed (completely removed) as an earlier branch was mispredicted. (Count)
system.cpu0.branchPred.squashes_0::DirectUncond      1161830      7.05%    100.00% # Number of branches that got squashed (completely removed) as an earlier branch was mispredicted. (Count)
system.cpu0.branchPred.squashes_0::IndirectCond            0      0.00%    100.00% # Number of branches that got squashed (completely removed) as an earlier branch was mispredicted. (Count)
system.cpu0.branchPred.squashes_0::IndirectUncond          742      0.00%    100.00% # Number of branches that got squashed (completely removed) as an earlier branch was mispredicted. (Count)
system.cpu0.branchPred.squashes_0::total     16479075                       # Number of branches that got squashed (completely removed) as an earlier branch was mispredicted. (Count)
system.cpu0.branchPred.corrected_0::NoBranch            0      0.00%      0.00% # Number of branches that got corrected but not yet commited. Branches get corrected by decode or after execute. Also a branch misprediction can be detected out-of-order. Therefore, a corrected branch might not end up beeing committed in case an even earlier branch was mispredicted (Count)
system.cpu0.branchPred.corrected_0::Return            8      0.00%      0.00% # Number of branches that got corrected but not yet commited. Branches get corrected by decode or after execute. Also a branch misprediction can be detected out-of-order. Therefore, a corrected branch might not end up beeing committed in case an even earlier branch was mispredicted (Count)
system.cpu0.branchPred.corrected_0::CallDirect          730      0.26%      0.27% # Number of branches that got corrected but not yet commited. Branches get corrected by decode or after execute. Also a branch misprediction can be detected out-of-order. Therefore, a corrected branch might not end up beeing committed in case an even earlier branch was mispredicted (Count)
system.cpu0.branchPred.corrected_0::CallIndirect          132      0.05%      0.32% # Number of branches that got corrected but not yet commited. Branches get corrected by decode or after execute. Also a branch misprediction can be detected out-of-order. Therefore, a corrected branch might not end up beeing committed in case an even earlier branch was mispredicted (Count)
system.cpu0.branchPred.corrected_0::DirectCond       274580     99.50%     99.82% # Number of branches that got corrected but not yet commited. Branches get corrected by decode or after execute. Also a branch misprediction can be detected out-of-order. Therefore, a corrected branch might not end up beeing committed in case an even earlier branch was mispredicted (Count)
system.cpu0.branchPred.corrected_0::DirectUncond          334      0.12%     99.94% # Number of branches that got corrected but not yet commited. Branches get corrected by decode or after execute. Also a branch misprediction can be detected out-of-order. Therefore, a corrected branch might not end up beeing committed in case an even earlier branch was mispredicted (Count)
system.cpu0.branchPred.corrected_0::IndirectCond            0      0.00%     99.94% # Number of branches that got corrected but not yet commited. Branches get corrected by decode or after execute. Also a branch misprediction can be detected out-of-order. Therefore, a corrected branch might not end up beeing committed in case an even earlier branch was mispredicted (Count)
system.cpu0.branchPred.corrected_0::IndirectUncond          164      0.06%    100.00% # Number of branches that got corrected but not yet commited. Branches get corrected by decode or after execute. Also a branch misprediction can be detected out-of-order. Therefore, a corrected branch might not end up beeing committed in case an even earlier branch was mispredicted (Count)
system.cpu0.branchPred.corrected_0::total       275948                       # Number of branches that got corrected but not yet commited. Branches get corrected by decode or after execute. Also a branch misprediction can be detected out-of-order. Therefore, a corrected branch might not end up beeing committed in case an even earlier branch was mispredicted (Count)
system.cpu0.branchPred.earlyResteers_0::NoBranch            0                       # Number of branches that got redirected after decode. (Count)
system.cpu0.branchPred.earlyResteers_0::Return            0                       # Number of branches that got redirected after decode. (Count)
system.cpu0.branchPred.earlyResteers_0::CallDirect            0                       # Number of branches that got redirected after decode. (Count)
system.cpu0.branchPred.earlyResteers_0::CallIndirect            0                       # Number of branches that got redirected after decode. (Count)
system.cpu0.branchPred.earlyResteers_0::DirectCond            0                       # Number of branches that got redirected after decode. (Count)
system.cpu0.branchPred.earlyResteers_0::DirectUncond            0                       # Number of branches that got redirected after decode. (Count)
system.cpu0.branchPred.earlyResteers_0::IndirectCond            0                       # Number of branches that got redirected after decode. (Count)
system.cpu0.branchPred.earlyResteers_0::IndirectUncond            0                       # Number of branches that got redirected after decode. (Count)
system.cpu0.branchPred.earlyResteers_0::total            0                       # Number of branches that got redirected after decode. (Count)
system.cpu0.branchPred.committed_0::NoBranch            0      0.00%      0.00% # Number of branches finally committed  (Count)
system.cpu0.branchPred.committed_0::Return      8002050     24.96%     24.96% # Number of branches finally committed  (Count)
system.cpu0.branchPred.committed_0::CallDirect      8001763     24.96%     49.92% # Number of branches finally committed  (Count)
system.cpu0.branchPred.committed_0::CallIndirect          292      0.00%     49.93% # Number of branches finally committed  (Count)
system.cpu0.branchPred.committed_0::DirectCond     14615400     45.59%     95.52% # Number of branches finally committed  (Count)
system.cpu0.branchPred.committed_0::DirectUncond      1436083      4.48%    100.00% # Number of branches finally committed  (Count)
system.cpu0.branchPred.committed_0::IndirectCond            0      0.00%    100.00% # Number of branches finally committed  (Count)
system.cpu0.branchPred.committed_0::IndirectUncond          303      0.00%    100.00% # Number of branches finally committed  (Count)
system.cpu0.branchPred.committed_0::total     32055891                       # Number of branches finally committed  (Count)
system.cpu0.branchPred.mispredicted_0::NoBranch            0      0.00%      0.00% # Number of committed branches that were mispredicted. (Count)
system.cpu0.branchPred.mispredicted_0::Return            0      0.00%      0.00% # Number of committed branches that were mispredicted. (Count)
system.cpu0.branchPred.mispredicted_0::CallDirect          508      0.18%      0.18% # Number of committed branches that were mispredicted. (Count)
system.cpu0.branchPred.mispredicted_0::CallIndirect          128      0.05%      0.23% # Number of committed branches that were mispredicted. (Count)
system.cpu0.branchPred.mispredicted_0::DirectCond       274336     99.66%     99.89% # Number of committed branches that were mispredicted. (Count)
system.cpu0.branchPred.mispredicted_0::DirectUncond          182      0.07%     99.95% # Number of committed branches that were mispredicted. (Count)
system.cpu0.branchPred.mispredicted_0::IndirectCond            0      0.00%     99.95% # Number of committed branches that were mispredicted. (Count)
system.cpu0.branchPred.mispredicted_0::IndirectUncond          128      0.05%    100.00% # Number of committed branches that were mispredicted. (Count)
system.cpu0.branchPred.mispredicted_0::total       275282                       # Number of committed branches that were mispredicted. (Count)
system.cpu0.branchPred.mispredictDueToPredictor_0::NoBranch            0      0.00%      0.00% # Number of committed branches that were mispredicted by the predictor. (Count)
system.cpu0.branchPred.mispredictDueToPredictor_0::Return            0      0.00%      0.00% # Number of committed branches that were mispredicted by the predictor. (Count)
system.cpu0.branchPred.mispredictDueToPredictor_0::CallDirect            0      0.00%      0.00% # Number of committed branches that were mispredicted by the predictor. (Count)
system.cpu0.branchPred.mispredictDueToPredictor_0::CallIndirect            0      0.00%      0.00% # Number of committed branches that were mispredicted by the predictor. (Count)
system.cpu0.branchPred.mispredictDueToPredictor_0::DirectCond       273692    100.00%    100.00% # Number of committed branches that were mispredicted by the predictor. (Count)
system.cpu0.branchPred.mispredictDueToPredictor_0::DirectUncond            0      0.00%    100.00% # Number of committed branches that were mispredicted by the predictor. (Count)
system.cpu0.branchPred.mispredictDueToPredictor_0::IndirectCond            0      0.00%    100.00% # Number of committed branches that were mispredicted by the predictor. (Count)
system.cpu0.branchPred.mispredictDueToPredictor_0::IndirectUncond            0      0.00%    100.00% # Number of committed branches that were mispredicted by the predictor. (Count)
system.cpu0.branchPred.mispredictDueToPredictor_0::total       273692                       # Number of committed branches that were mispredicted by the predictor. (Count)
system.cpu0.branchPred.mispredictDueToBTBMiss_0::NoBranch            0      0.00%      0.00% # Number of committed branches that were mispredicted because of a BTB miss. (Count)
system.cpu0.branchPred.mispredictDueToBTBMiss_0::Return            0      0.00%      0.00% # Number of committed branches that were mispredicted because of a BTB miss. (Count)
system.cpu0.branchPred.mispredictDueToBTBMiss_0::CallDirect          508     31.95%     31.95% # Number of committed branches that were mispredicted because of a BTB miss. (Count)
system.cpu0.branchPred.mispredictDueToBTBMiss_0::CallIndirect          128      8.05%     40.00% # Number of committed branches that were mispredicted because of a BTB miss. (Count)
system.cpu0.branchPred.mispredictDueToBTBMiss_0::DirectCond          644     40.50%     80.50% # Number of committed branches that were mispredicted because of a BTB miss. (Count)
system.cpu0.branchPred.mispredictDueToBTBMiss_0::DirectUncond          182     11.45%     91.95% # Number of committed branches that were mispredicted because of a BTB miss. (Count)
system.cpu0.branchPred.mispredictDueToBTBMiss_0::IndirectCond            0      0.00%     91.95% # Number of committed branches that were mispredicted because of a BTB miss. (Count)
system.cpu0.branchPred.mispredictDueToBTBMiss_0::IndirectUncond          128      8.05%    100.00% # Number of committed branches that were mispredicted because of a BTB miss. (Count)
system.cpu0.branchPred.mispredictDueToBTBMiss_0::total         1590                       # Number of committed branches that were mispredicted because of a BTB miss. (Count)
system.cpu0.branchPred.targetProvider_0::NoTarget     13026924     26.84%     26.84% # The component providing the target for taken branches (Count)
system.cpu0.branchPred.targetProvider_0::BTB     24842438     51.18%     78.02% # The component providing the target for taken branches (Count)
system.cpu0.branchPred.targetProvider_0::RAS     10665135     21.97%    100.00% # The component providing the target for taken branches (Count)
system.cpu0.branchPred.targetProvider_0::Indirect          475      0.00%    100.00% # The component providing the target for taken branches (Count)
system.cpu0.branchPred.targetProvider_0::total     48534972                       # The component providing the target for taken branches (Count)
system.cpu0.branchPred.targetWrong_0::NoBranch       142335     51.58%     51.58% # Number of branches where the target was incorrect or not available at prediction time. (Count)
system.cpu0.branchPred.targetWrong_0::Return       133570     48.41%     99.99% # Number of branches where the target was incorrect or not available at prediction time. (Count)
system.cpu0.branchPred.targetWrong_0::CallDirect            8      0.00%     99.99% # Number of branches where the target was incorrect or not available at prediction time. (Count)
system.cpu0.branchPred.targetWrong_0::CallIndirect           22      0.01%    100.00% # Number of branches where the target was incorrect or not available at prediction time. (Count)
system.cpu0.branchPred.targetWrong_0::DirectCond            0      0.00%    100.00% # Number of branches where the target was incorrect or not available at prediction time. (Count)
system.cpu0.branchPred.targetWrong_0::DirectUncond            0      0.00%    100.00% # Number of branches where the target was incorrect or not available at prediction time. (Count)
system.cpu0.branchPred.targetWrong_0::IndirectCond            0      0.00%    100.00% # Number of branches where the target was incorrect or not available at prediction time. (Count)
system.cpu0.branchPred.targetWrong_0::IndirectUncond            0      0.00%    100.00% # Number of branches where the target was incorrect or not available at prediction time. (Count)
system.cpu0.branchPred.targetWrong_0::total       275935                       # Number of branches where the target was incorrect or not available at prediction time. (Count)
system.cpu0.branchPred.condPredicted         23607402                       # Number of conditional branches predicted (Count)
system.cpu0.branchPred.condPredictedTaken     10584446                       # Number of conditional branches predicted as taken (Count)
system.cpu0.branchPred.condIncorrect           275948                       # Number of conditional branches incorrect (Count)
system.cpu0.branchPred.predTakenBTBMiss          1316                       # Number of branches predicted taken but missed in BTB (Count)
system.cpu0.branchPred.BTBLookups            48534972                       # Number of BTB lookups (Count)
system.cpu0.branchPred.BTBUpdates              142068                       # Number of BTB updates (Count)
system.cpu0.branchPred.BTBHits               27359150                       # Number of BTB hits (Count)
system.cpu0.branchPred.BTBHitRatio           0.563700                       # BTB Hit Ratio (Ratio)
system.cpu0.branchPred.BTBMispredicted           1804                       # Number BTB mispredictions. No target found or target wrong (Count)
system.cpu0.branchPred.indirectLookups           1555                       # Number of indirect predictor lookups. (Count)
system.cpu0.branchPred.indirectHits               475                       # Number of indirect target hits. (Count)
system.cpu0.branchPred.indirectMisses            1080                       # Number of indirect misses. (Count)
system.cpu0.branchPred.indirectMispredicted            0                       # Number of mispredicted indirect branches. (Count)
system.cpu0.branchPred.btb.lookups::NoBranch            0      0.00%      0.00% # Number of BTB lookups (Count)
system.cpu0.branchPred.btb.lookups::Return     10665135     21.97%     21.97% # Number of BTB lookups (Count)
system.cpu0.branchPred.btb.lookups::CallDirect     11662967     24.03%     46.00% # Number of BTB lookups (Count)
system.cpu0.branchPred.btb.lookups::CallIndirect          510      0.00%     46.01% # Number of BTB lookups (Count)
system.cpu0.branchPred.btb.lookups::DirectCond     23607402     48.64%     94.65% # Number of BTB lookups (Count)
system.cpu0.branchPred.btb.lookups::DirectUncond      2597913      5.35%    100.00% # Number of BTB lookups (Count)
system.cpu0.branchPred.btb.lookups::IndirectCond            0      0.00%    100.00% # Number of BTB lookups (Count)
system.cpu0.branchPred.btb.lookups::IndirectUncond         1045      0.00%    100.00% # Number of BTB lookups (Count)
system.cpu0.branchPred.btb.lookups::total     48534972                       # Number of BTB lookups (Count)
system.cpu0.branchPred.btb.misses::NoBranch            0      0.00%      0.00% # Number of BTB misses (Count)
system.cpu0.branchPred.btb.misses::Return     10665135     50.36%     50.36% # Number of BTB misses (Count)
system.cpu0.branchPred.btb.misses::CallDirect         1002      0.00%     50.37% # Number of BTB misses (Count)
system.cpu0.branchPred.btb.misses::CallIndirect          510      0.00%     50.37% # Number of BTB misses (Count)
system.cpu0.branchPred.btb.misses::DirectCond     10507650     49.62%     99.99% # Number of BTB misses (Count)
system.cpu0.branchPred.btb.misses::DirectUncond          480      0.00%    100.00% # Number of BTB misses (Count)
system.cpu0.branchPred.btb.misses::IndirectCond            0      0.00%    100.00% # Number of BTB misses (Count)
system.cpu0.branchPred.btb.misses::IndirectUncond         1045      0.00%    100.00% # Number of BTB misses (Count)
system.cpu0.branchPred.btb.misses::total     21175822                       # Number of BTB misses (Count)
system.cpu0.branchPred.btb.updates::NoBranch            0      0.00%      0.00% # Number of BTB updates (Count)
system.cpu0.branchPred.btb.updates::Return            0      0.00%      0.00% # Number of BTB updates (Count)
system.cpu0.branchPred.btb.updates::CallDirect          730      0.51%      0.51% # Number of BTB updates (Count)
system.cpu0.branchPred.btb.updates::CallIndirect            0      0.00%      0.51% # Number of BTB updates (Count)
system.cpu0.branchPred.btb.updates::DirectCond       141004     99.25%     99.76% # Number of BTB updates (Count)
system.cpu0.branchPred.btb.updates::DirectUncond          334      0.24%    100.00% # Number of BTB updates (Count)
system.cpu0.branchPred.btb.updates::IndirectCond            0      0.00%    100.00% # Number of BTB updates (Count)
system.cpu0.branchPred.btb.updates::IndirectUncond            0      0.00%    100.00% # Number of BTB updates (Count)
system.cpu0.branchPred.btb.updates::total       142068                       # Number of BTB updates (Count)
system.cpu0.branchPred.btb.mispredict::NoBranch            0      0.00%      0.00% # Number of BTB mispredictions. No target found or target wrong. (Count)
system.cpu0.branchPred.btb.mispredict::Return            0      0.00%      0.00% # Number of BTB mispredictions. No target found or target wrong. (Count)
system.cpu0.branchPred.btb.mispredict::CallDirect          730      0.51%      0.51% # Number of BTB mispredictions. No target found or target wrong. (Count)
system.cpu0.branchPred.btb.mispredict::CallIndirect            0      0.00%      0.51% # Number of BTB mispredictions. No target found or target wrong. (Count)
system.cpu0.branchPred.btb.mispredict::DirectCond       141004     99.25%     99.76% # Number of BTB mispredictions. No target found or target wrong. (Count)
system.cpu0.branchPred.btb.mispredict::DirectUncond          334      0.24%    100.00% # Number of BTB mispredictions. No target found or target wrong. (Count)
system.cpu0.branchPred.btb.mispredict::IndirectCond            0      0.00%    100.00% # Number of BTB mispredictions. No target found or target wrong. (Count)
system.cpu0.branchPred.btb.mispredict::IndirectUncond            0      0.00%    100.00% # Number of BTB mispredictions. No target found or target wrong. (Count)
system.cpu0.branchPred.btb.mispredict::total       142068                       # Number of BTB mispredictions. No target found or target wrong. (Count)
system.cpu0.branchPred.btb.power_state.pwrStateResidencyTicks::UNDEFINED 319440205000                       # Cumulative time (in ticks) in various power states (Tick)
system.cpu0.branchPred.indirectBranchPred.lookups         1555                       # Number of lookups (Count)
system.cpu0.branchPred.indirectBranchPred.hits          475                       # Number of hits of a tag (Count)
system.cpu0.branchPred.indirectBranchPred.misses         1080                       # Number of misses (Count)
system.cpu0.branchPred.indirectBranchPred.targetRecords          296                       # Number of targets that where recorded/installed in the cache (Count)
system.cpu0.branchPred.indirectBranchPred.indirectRecords         1851                       # Number of indirect branches/calls recorded in the indirect hist (Count)
system.cpu0.branchPred.indirectBranchPred.speculativeOverflows            1                       # Number of times more than the allowed capacity for speculative branches/calls where in flight and destroy the path history (Count)
system.cpu0.branchPred.ras.pushes            14326562                       # Number of times a PC was pushed onto the RAS (Count)
system.cpu0.branchPred.ras.pops              14326557                       # Number of times a PC was poped from the RAS (Count)
system.cpu0.branchPred.ras.squashes           6324507                       # Number of times the stack operation was squashed due to wrong speculation. (Count)
system.cpu0.branchPred.ras.used               8002050                       # Number of times the RAS is the provider (Count)
system.cpu0.branchPred.ras.correct            8002050                       # Number of times the RAS is the provider and the prediction is correct (Count)
system.cpu0.branchPred.ras.incorrect                0                       # Number of times the RAS is the provider and the prediction is wrong (Count)
system.cpu0.commit.commitSquashedInsts      118034386                       # The number of squashed insts skipped by commit (Count)
system.cpu0.commit.commitNonSpecStalls        6000625                       # The number of times commit has been forced to stall to communicate backwards (Count)
system.cpu0.commit.branchMispredicts           274934                       # The number of times a branch was mispredicted (Count)
system.cpu0.commit.numCommittedDist::samples    224875338                       # Number of insts commited each cycle (Count)
system.cpu0.commit.numCommittedDist::mean     1.527251                       # Number of insts commited each cycle (Count)
system.cpu0.commit.numCommittedDist::stdev     2.636063                       # Number of insts commited each cycle (Count)
system.cpu0.commit.numCommittedDist::underflows            0      0.00%      0.00% # Number of insts commited each cycle (Count)
system.cpu0.commit.numCommittedDist::0      140580634     62.51%     62.51% # Number of insts commited each cycle (Count)
system.cpu0.commit.numCommittedDist::1       27660484     12.30%     74.82% # Number of insts commited each cycle (Count)
system.cpu0.commit.numCommittedDist::2        5339132      2.37%     77.19% # Number of insts commited each cycle (Count)
system.cpu0.commit.numCommittedDist::3       13591085      6.04%     83.23% # Number of insts commited each cycle (Count)
system.cpu0.commit.numCommittedDist::4        3118349      1.39%     84.62% # Number of insts commited each cycle (Count)
system.cpu0.commit.numCommittedDist::5        2367450      1.05%     85.67% # Number of insts commited each cycle (Count)
system.cpu0.commit.numCommittedDist::6        5333983      2.37%     88.04% # Number of insts commited each cycle (Count)
system.cpu0.commit.numCommittedDist::7        7059282      3.14%     91.18% # Number of insts commited each cycle (Count)
system.cpu0.commit.numCommittedDist::8       19824939      8.82%    100.00% # Number of insts commited each cycle (Count)
system.cpu0.commit.numCommittedDist::overflows            0      0.00%    100.00% # Number of insts commited each cycle (Count)
system.cpu0.commit.numCommittedDist::min_value            0                       # Number of insts commited each cycle (Count)
system.cpu0.commit.numCommittedDist::max_value            8                       # Number of insts commited each cycle (Count)
system.cpu0.commit.numCommittedDist::total    224875338                       # Number of insts commited each cycle (Count)
system.cpu0.commit.amos                             0                       # Number of atomic instructions committed (Count)
system.cpu0.commit.membars                    4000416                       # Number of memory barriers committed (Count)
system.cpu0.commit.functionCalls              8002055                       # Number of function calls committed. (Count)
system.cpu0.commit.committedInstType_0::No_OpClass      8002546      2.33%      2.33% # Class of committed instruction (Count)
system.cpu0.commit.committedInstType_0::IntAlu    219843668     64.01%     66.34% # Class of committed instruction (Count)
system.cpu0.commit.committedInstType_0::IntMult      2000168      0.58%     66.92% # Class of committed instruction (Count)
system.cpu0.commit.committedInstType_0::IntDiv           77      0.00%     66.92% # Class of committed instruction (Count)
system.cpu0.commit.committedInstType_0::FloatAdd      2001690      0.58%     67.51% # Class of committed instruction (Count)
system.cpu0.commit.committedInstType_0::FloatCmp            0      0.00%     67.51% # Class of committed instruction (Count)
system.cpu0.commit.committedInstType_0::FloatCvt            0      0.00%     67.51% # Class of committed instruction (Count)
system.cpu0.commit.committedInstType_0::FloatMult            0      0.00%     67.51% # Class of committed instruction (Count)
system.cpu0.commit.committedInstType_0::FloatMultAcc            0      0.00%     67.51% # Class of committed instruction (Count)
system.cpu0.commit.committedInstType_0::FloatDiv            0      0.00%     67.51% # Class of committed instruction (Count)
system.cpu0.commit.committedInstType_0::FloatMisc            0      0.00%     67.51% # Class of committed instruction (Count)
system.cpu0.commit.committedInstType_0::FloatSqrt            0      0.00%     67.51% # Class of committed instruction (Count)
system.cpu0.commit.committedInstType_0::SimdAdd           26      0.00%     67.51% # Class of committed instruction (Count)
system.cpu0.commit.committedInstType_0::SimdAddAcc            0      0.00%     67.51% # Class of committed instruction (Count)
system.cpu0.commit.committedInstType_0::SimdAlu         1006      0.00%     67.51% # Class of committed instruction (Count)
system.cpu0.commit.committedInstType_0::SimdCmp            6      0.00%     67.51% # Class of committed instruction (Count)
system.cpu0.commit.committedInstType_0::SimdCvt          464      0.00%     67.51% # Class of committed instruction (Count)
system.cpu0.commit.committedInstType_0::SimdMisc      2002390      0.58%     68.09% # Class of committed instruction (Count)
system.cpu0.commit.committedInstType_0::SimdMult            0      0.00%     68.09% # Class of committed instruction (Count)
system.cpu0.commit.committedInstType_0::SimdMultAcc            0      0.00%     68.09% # Class of committed instruction (Count)
system.cpu0.commit.committedInstType_0::SimdMatMultAcc            0      0.00%     68.09% # Class of committed instruction (Count)
system.cpu0.commit.committedInstType_0::SimdShift            0      0.00%     68.09% # Class of committed instruction (Count)
system.cpu0.commit.committedInstType_0::SimdShiftAcc            0      0.00%     68.09% # Class of committed instruction (Count)
system.cpu0.commit.committedInstType_0::SimdDiv            0      0.00%     68.09% # Class of committed instruction (Count)
system.cpu0.commit.committedInstType_0::SimdSqrt            0      0.00%     68.09% # Class of committed instruction (Count)
system.cpu0.commit.committedInstType_0::SimdFloatAdd           19      0.00%     68.09% # Class of committed instruction (Count)
system.cpu0.commit.committedInstType_0::SimdFloatAlu            0      0.00%     68.09% # Class of committed instruction (Count)
system.cpu0.commit.committedInstType_0::SimdFloatCmp            0      0.00%     68.09% # Class of committed instruction (Count)
system.cpu0.commit.committedInstType_0::SimdFloatCvt            9      0.00%     68.09% # Class of committed instruction (Count)
system.cpu0.commit.committedInstType_0::SimdFloatDiv            2      0.00%     68.09% # Class of committed instruction (Count)
system.cpu0.commit.committedInstType_0::SimdFloatMisc            0      0.00%     68.09% # Class of committed instruction (Count)
system.cpu0.commit.committedInstType_0::SimdFloatMult           12      0.00%     68.09% # Class of committed instruction (Count)
system.cpu0.commit.committedInstType_0::SimdFloatMultAcc            0      0.00%     68.09% # Class of committed instruction (Count)
system.cpu0.commit.committedInstType_0::SimdFloatMatMultAcc            0      0.00%     68.09% # Class of committed instruction (Count)
system.cpu0.commit.committedInstType_0::SimdFloatSqrt            0      0.00%     68.09% # Class of committed instruction (Count)
system.cpu0.commit.committedInstType_0::SimdReduceAdd            0      0.00%     68.09% # Class of committed instruction (Count)
system.cpu0.commit.committedInstType_0::SimdReduceAlu            0      0.00%     68.09% # Class of committed instruction (Count)
system.cpu0.commit.committedInstType_0::SimdReduceCmp            0      0.00%     68.09% # Class of committed instruction (Count)
system.cpu0.commit.committedInstType_0::SimdFloatReduceAdd            0      0.00%     68.09% # Class of committed instruction (Count)
system.cpu0.commit.committedInstType_0::SimdFloatReduceCmp            0      0.00%     68.09% # Class of committed instruction (Count)
system.cpu0.commit.committedInstType_0::SimdAes            0      0.00%     68.09% # Class of committed instruction (Count)
system.cpu0.commit.committedInstType_0::SimdAesMix            0      0.00%     68.09% # Class of committed instruction (Count)
system.cpu0.commit.committedInstType_0::SimdSha1Hash            0      0.00%     68.09% # Class of committed instruction (Count)
system.cpu0.commit.committedInstType_0::SimdSha1Hash2            0      0.00%     68.09% # Class of committed instruction (Count)
system.cpu0.commit.committedInstType_0::SimdSha256Hash            0      0.00%     68.09% # Class of committed instruction (Count)
system.cpu0.commit.committedInstType_0::SimdSha256Hash2            0      0.00%     68.09% # Class of committed instruction (Count)
system.cpu0.commit.committedInstType_0::SimdShaSigma2            0      0.00%     68.09% # Class of committed instruction (Count)
system.cpu0.commit.committedInstType_0::SimdShaSigma3            0      0.00%     68.09% # Class of committed instruction (Count)
system.cpu0.commit.committedInstType_0::SimdPredAlu            0      0.00%     68.09% # Class of committed instruction (Count)
system.cpu0.commit.committedInstType_0::Matrix            0      0.00%     68.09% # Class of committed instruction (Count)
system.cpu0.commit.committedInstType_0::MatrixMov            0      0.00%     68.09% # Class of committed instruction (Count)
system.cpu0.commit.committedInstType_0::MatrixOP            0      0.00%     68.09% # Class of committed instruction (Count)
system.cpu0.commit.committedInstType_0::MemRead     69322468     20.18%     88.28% # Class of committed instruction (Count)
system.cpu0.commit.committedInstType_0::MemWrite     37263277     10.85%     99.13% # Class of committed instruction (Count)
system.cpu0.commit.committedInstType_0::FloatMemRead       501010      0.15%     99.27% # Class of committed instruction (Count)
system.cpu0.commit.committedInstType_0::FloatMemWrite      2502195      0.73%    100.00% # Class of committed instruction (Count)
system.cpu0.commit.committedInstType_0::IprAccess            0      0.00%    100.00% # Class of committed instruction (Count)
system.cpu0.commit.committedInstType_0::InstPrefetch            0      0.00%    100.00% # Class of committed instruction (Count)
system.cpu0.commit.committedInstType_0::SimdUnitStrideLoad            0      0.00%    100.00% # Class of committed instruction (Count)
system.cpu0.commit.committedInstType_0::SimdUnitStrideStore            0      0.00%    100.00% # Class of committed instruction (Count)
system.cpu0.commit.committedInstType_0::SimdUnitStrideMaskLoad            0      0.00%    100.00% # Class of committed instruction (Count)
system.cpu0.commit.committedInstType_0::SimdUnitStrideMaskStore            0      0.00%    100.00% # Class of committed instruction (Count)
system.cpu0.commit.committedInstType_0::SimdStridedLoad            0      0.00%    100.00% # Class of committed instruction (Count)
system.cpu0.commit.committedInstType_0::SimdStridedStore            0      0.00%    100.00% # Class of committed instruction (Count)
system.cpu0.commit.committedInstType_0::SimdIndexedLoad            0      0.00%    100.00% # Class of committed instruction (Count)
system.cpu0.commit.committedInstType_0::SimdIndexedStore            0      0.00%    100.00% # Class of committed instruction (Count)
system.cpu0.commit.committedInstType_0::SimdWholeRegisterLoad            0      0.00%    100.00% # Class of committed instruction (Count)
system.cpu0.commit.committedInstType_0::SimdWholeRegisterStore            0      0.00%    100.00% # Class of committed instruction (Count)
system.cpu0.commit.committedInstType_0::SimdUnitStrideFaultOnlyFirstLoad            0      0.00%    100.00% # Class of committed instruction (Count)
system.cpu0.commit.committedInstType_0::SimdUnitStrideSegmentedLoad            0      0.00%    100.00% # Class of committed instruction (Count)
system.cpu0.commit.committedInstType_0::SimdUnitStrideSegmentedStore            0      0.00%    100.00% # Class of committed instruction (Count)
system.cpu0.commit.committedInstType_0::SimdUnitStrideSegmentedFaultOnlyFirstLoad            0      0.00%    100.00% # Class of committed instruction (Count)
system.cpu0.commit.committedInstType_0::SimdStrideSegmentedLoad            0      0.00%    100.00% # Class of committed instruction (Count)
system.cpu0.commit.committedInstType_0::SimdStrideSegmentedStore            0      0.00%    100.00% # Class of committed instruction (Count)
system.cpu0.commit.committedInstType_0::SimdExt            0      0.00%    100.00% # Class of committed instruction (Count)
system.cpu0.commit.committedInstType_0::SimdFloatExt            0      0.00%    100.00% # Class of committed instruction (Count)
system.cpu0.commit.committedInstType_0::SimdConfig            0      0.00%    100.00% # Class of committed instruction (Count)
system.cpu0.commit.committedInstType_0::total    343441033                       # Class of committed instruction (Count)
system.cpu0.commit.commitEligibleSamples     19824939                       # number cycles where commit BW limit reached (Cycle)
system.cpu0.commitStats0.numInsts           199195908                       # Number of instructions committed (thread level) (Count)
system.cpu0.commitStats0.numOps             343441033                       # Number of ops (including micro ops) committed (thread level) (Count)
system.cpu0.commitStats0.numInstsNotNOP     199195908                       # Number of instructions committed excluding NOPs or prefetches (Count)
system.cpu0.commitStats0.numOpsNotNOP       343441033                       # Number of Ops (including micro ops) Simulated (Count)
system.cpu0.commitStats0.cpi                 1.206789                       # CPI: cycles per instruction (thread level) ((Cycle/Count))
system.cpu0.commitStats0.ipc                 0.828645                       # IPC: instructions per cycle (thread level) ((Count/Cycle))
system.cpu0.commitStats0.numMemRefs         109588950                       # Number of memory references committed (Count)
system.cpu0.commitStats0.numFpInsts           8009880                       # Number of float instructions (Count)
system.cpu0.commitStats0.numIntInsts        328132021                       # Number of integer instructions (Count)
system.cpu0.commitStats0.numLoadInsts        69823478                       # Number of load instructions (Count)
system.cpu0.commitStats0.numStoreInsts       39765472                       # Number of store instructions (Count)
system.cpu0.commitStats0.numVecInsts                0                       # Number of vector instructions (Count)
system.cpu0.commitStats0.committedInstType::No_OpClass      8002546      2.33%      2.33% # Class of committed instruction. (Count)
system.cpu0.commitStats0.committedInstType::IntAlu    219843668     64.01%     66.34% # Class of committed instruction. (Count)
system.cpu0.commitStats0.committedInstType::IntMult      2000168      0.58%     66.92% # Class of committed instruction. (Count)
system.cpu0.commitStats0.committedInstType::IntDiv           77      0.00%     66.92% # Class of committed instruction. (Count)
system.cpu0.commitStats0.committedInstType::FloatAdd      2001690      0.58%     67.51% # Class of committed instruction. (Count)
system.cpu0.commitStats0.committedInstType::FloatCmp            0      0.00%     67.51% # Class of committed instruction. (Count)
system.cpu0.commitStats0.committedInstType::FloatCvt            0      0.00%     67.51% # Class of committed instruction. (Count)
system.cpu0.commitStats0.committedInstType::FloatMult            0      0.00%     67.51% # Class of committed instruction. (Count)
system.cpu0.commitStats0.committedInstType::FloatMultAcc            0      0.00%     67.51% # Class of committed instruction. (Count)
system.cpu0.commitStats0.committedInstType::FloatDiv            0      0.00%     67.51% # Class of committed instruction. (Count)
system.cpu0.commitStats0.committedInstType::FloatMisc            0      0.00%     67.51% # Class of committed instruction. (Count)
system.cpu0.commitStats0.committedInstType::FloatSqrt            0      0.00%     67.51% # Class of committed instruction. (Count)
system.cpu0.commitStats0.committedInstType::SimdAdd           26      0.00%     67.51% # Class of committed instruction. (Count)
system.cpu0.commitStats0.committedInstType::SimdAddAcc            0      0.00%     67.51% # Class of committed instruction. (Count)
system.cpu0.commitStats0.committedInstType::SimdAlu         1006      0.00%     67.51% # Class of committed instruction. (Count)
system.cpu0.commitStats0.committedInstType::SimdCmp            6      0.00%     67.51% # Class of committed instruction. (Count)
system.cpu0.commitStats0.committedInstType::SimdCvt          464      0.00%     67.51% # Class of committed instruction. (Count)
system.cpu0.commitStats0.committedInstType::SimdMisc      2002390      0.58%     68.09% # Class of committed instruction. (Count)
system.cpu0.commitStats0.committedInstType::SimdMult            0      0.00%     68.09% # Class of committed instruction. (Count)
system.cpu0.commitStats0.committedInstType::SimdMultAcc            0      0.00%     68.09% # Class of committed instruction. (Count)
system.cpu0.commitStats0.committedInstType::SimdMatMultAcc            0      0.00%     68.09% # Class of committed instruction. (Count)
system.cpu0.commitStats0.committedInstType::SimdShift            0      0.00%     68.09% # Class of committed instruction. (Count)
system.cpu0.commitStats0.committedInstType::SimdShiftAcc            0      0.00%     68.09% # Class of committed instruction. (Count)
system.cpu0.commitStats0.committedInstType::SimdDiv            0      0.00%     68.09% # Class of committed instruction. (Count)
system.cpu0.commitStats0.committedInstType::SimdSqrt            0      0.00%     68.09% # Class of committed instruction. (Count)
system.cpu0.commitStats0.committedInstType::SimdFloatAdd           19      0.00%     68.09% # Class of committed instruction. (Count)
system.cpu0.commitStats0.committedInstType::SimdFloatAlu            0      0.00%     68.09% # Class of committed instruction. (Count)
system.cpu0.commitStats0.committedInstType::SimdFloatCmp            0      0.00%     68.09% # Class of committed instruction. (Count)
system.cpu0.commitStats0.committedInstType::SimdFloatCvt            9      0.00%     68.09% # Class of committed instruction. (Count)
system.cpu0.commitStats0.committedInstType::SimdFloatDiv            2      0.00%     68.09% # Class of committed instruction. (Count)
system.cpu0.commitStats0.committedInstType::SimdFloatMisc            0      0.00%     68.09% # Class of committed instruction. (Count)
system.cpu0.commitStats0.committedInstType::SimdFloatMult           12      0.00%     68.09% # Class of committed instruction. (Count)
system.cpu0.commitStats0.committedInstType::SimdFloatMultAcc            0      0.00%     68.09% # Class of committed instruction. (Count)
system.cpu0.commitStats0.committedInstType::SimdFloatMatMultAcc            0      0.00%     68.09% # Class of committed instruction. (Count)
system.cpu0.commitStats0.committedInstType::SimdFloatSqrt            0      0.00%     68.09% # Class of committed instruction. (Count)
system.cpu0.commitStats0.committedInstType::SimdReduceAdd            0      0.00%     68.09% # Class of committed instruction. (Count)
system.cpu0.commitStats0.committedInstType::SimdReduceAlu            0      0.00%     68.09% # Class of committed instruction. (Count)
system.cpu0.commitStats0.committedInstType::SimdReduceCmp            0      0.00%     68.09% # Class of committed instruction. (Count)
system.cpu0.commitStats0.committedInstType::SimdFloatReduceAdd            0      0.00%     68.09% # Class of committed instruction. (Count)
system.cpu0.commitStats0.committedInstType::SimdFloatReduceCmp            0      0.00%     68.09% # Class of committed instruction. (Count)
system.cpu0.commitStats0.committedInstType::SimdAes            0      0.00%     68.09% # Class of committed instruction. (Count)
system.cpu0.commitStats0.committedInstType::SimdAesMix            0      0.00%     68.09% # Class of committed instruction. (Count)
system.cpu0.commitStats0.committedInstType::SimdSha1Hash            0      0.00%     68.09% # Class of committed instruction. (Count)
system.cpu0.commitStats0.committedInstType::SimdSha1Hash2            0      0.00%     68.09% # Class of committed instruction. (Count)
system.cpu0.commitStats0.committedInstType::SimdSha256Hash            0      0.00%     68.09% # Class of committed instruction. (Count)
system.cpu0.commitStats0.committedInstType::SimdSha256Hash2            0      0.00%     68.09% # Class of committed instruction. (Count)
system.cpu0.commitStats0.committedInstType::SimdShaSigma2            0      0.00%     68.09% # Class of committed instruction. (Count)
system.cpu0.commitStats0.committedInstType::SimdShaSigma3            0      0.00%     68.09% # Class of committed instruction. (Count)
system.cpu0.commitStats0.committedInstType::SimdPredAlu            0      0.00%     68.09% # Class of committed instruction. (Count)
system.cpu0.commitStats0.committedInstType::Matrix            0      0.00%     68.09% # Class of committed instruction. (Count)
system.cpu0.commitStats0.committedInstType::MatrixMov            0      0.00%     68.09% # Class of committed instruction. (Count)
system.cpu0.commitStats0.committedInstType::MatrixOP            0      0.00%     68.09% # Class of committed instruction. (Count)
system.cpu0.commitStats0.committedInstType::MemRead     69322468     20.18%     88.28% # Class of committed instruction. (Count)
system.cpu0.commitStats0.committedInstType::MemWrite     37263277     10.85%     99.13% # Class of committed instruction. (Count)
system.cpu0.commitStats0.committedInstType::FloatMemRead       501010      0.15%     99.27% # Class of committed instruction. (Count)
system.cpu0.commitStats0.committedInstType::FloatMemWrite      2502195      0.73%    100.00% # Class of committed instruction. (Count)
system.cpu0.commitStats0.committedInstType::IprAccess            0      0.00%    100.00% # Class of committed instruction. (Count)
system.cpu0.commitStats0.committedInstType::InstPrefetch            0      0.00%    100.00% # Class of committed instruction. (Count)
system.cpu0.commitStats0.committedInstType::SimdUnitStrideLoad            0      0.00%    100.00% # Class of committed instruction. (Count)
system.cpu0.commitStats0.committedInstType::SimdUnitStrideStore            0      0.00%    100.00% # Class of committed instruction. (Count)
system.cpu0.commitStats0.committedInstType::SimdUnitStrideMaskLoad            0      0.00%    100.00% # Class of committed instruction. (Count)
system.cpu0.commitStats0.committedInstType::SimdUnitStrideMaskStore            0      0.00%    100.00% # Class of committed instruction. (Count)
system.cpu0.commitStats0.committedInstType::SimdStridedLoad            0      0.00%    100.00% # Class of committed instruction. (Count)
system.cpu0.commitStats0.committedInstType::SimdStridedStore            0      0.00%    100.00% # Class of committed instruction. (Count)
system.cpu0.commitStats0.committedInstType::SimdIndexedLoad            0      0.00%    100.00% # Class of committed instruction. (Count)
system.cpu0.commitStats0.committedInstType::SimdIndexedStore            0      0.00%    100.00% # Class of committed instruction. (Count)
system.cpu0.commitStats0.committedInstType::SimdWholeRegisterLoad            0      0.00%    100.00% # Class of committed instruction. (Count)
system.cpu0.commitStats0.committedInstType::SimdWholeRegisterStore            0      0.00%    100.00% # Class of committed instruction. (Count)
system.cpu0.commitStats0.committedInstType::SimdUnitStrideFaultOnlyFirstLoad            0      0.00%    100.00% # Class of committed instruction. (Count)
system.cpu0.commitStats0.committedInstType::SimdUnitStrideSegmentedLoad            0      0.00%    100.00% # Class of committed instruction. (Count)
system.cpu0.commitStats0.committedInstType::SimdUnitStrideSegmentedStore            0      0.00%    100.00% # Class of committed instruction. (Count)
system.cpu0.commitStats0.committedInstType::SimdUnitStrideSegmentedFaultOnlyFirstLoad            0      0.00%    100.00% # Class of committed instruction. (Count)
[...]
system.membus.snoopFanout::samples            1853045                       # Request fanout histogram (Count)
system.membus.snoopFanout::mean                     0                       # Request fanout histogram (Count)
system.membus.snoopFanout::stdev                    0                       # Request fanout histogram (Count)
system.membus.snoopFanout::underflows               0      0.00%      0.00% # Request fanout histogram (Count)
system.membus.snoopFanout::0                  1853045    100.00%    100.00% # Request fanout histogram (Count)
system.membus.snoopFanout::1                        0      0.00%    100.00% # Request fanout histogram (Count)
system.membus.snoopFanout::overflows                0      0.00%    100.00% # Request fanout histogram (Count)
system.membus.snoopFanout::min_value                0                       # Request fanout histogram (Count)
system.membus.snoopFanout::max_value                0                       # Request fanout histogram (Count)
system.membus.snoopFanout::total              1853045                       # Request fanout histogram (Count)
system.membus.power_state.pwrStateResidencyTicks::UNDEFINED 319440205000                       # Cumulative time (in ticks) in various power states (Tick)
system.membus.reqLayer16.occupancy         8580659500                       # Layer occupancy (ticks) (Tick)
system.membus.reqLayer16.utilization              0.0                       # Layer utilization (Ratio)
system.membus.respLayer1.occupancy         9830812750                       # Layer occupancy (ticks) (Tick)
system.membus.respLayer1.utilization              0.0                       # Layer utilization (Ratio)
system.membus.snoop_filter.totRequests        3691376                       # Total number of requests made to the snoop filter. (Count)
system.membus.snoop_filter.hitSingleRequests      1848108                       # Number of requests hitting in the snoop filter with a single holder of the requested data. (Count)
system.membus.snoop_filter.hitMultiRequests            0                       # Number of requests hitting in the snoop filter with multiple (>1) holders of the requested data. (Count)
system.membus.snoop_filter.totSnoops                0                       # Total number of snoops made to the snoop filter. (Count)
system.membus.snoop_filter.hitSingleSnoops            0                       # Number of snoops hitting in the snoop filter with a single holder of the requested data. (Count)
system.membus.snoop_filter.hitMultiSnoops            0                       # Number of snoops hitting in the snoop filter with multiple (>1) holders of the requested data. (Count)
system.tol2bus.transDist::ReadResp             878583                       # Transaction distribution (Count)
system.tol2bus.transDist::ReadRespWithInvalidate            1                       # Transaction distribution (Count)
system.tol2bus.transDist::WritebackDirty      2385166                       # Transaction distribution (Count)
system.tol2bus.transDist::WritebackClean         3354                       # Transaction distribution (Count)
system.tol2bus.transDist::CleanEvict          2086028                       # Transaction distribution (Count)
system.tol2bus.transDist::UpgradeReq              967                       # Transaction distribution (Count)
system.tol2bus.transDist::UpgradeResp             967                       # Transaction distribution (Count)
system.tol2bus.transDist::ReadExReq           1094838                       # Transaction distribution (Count)
system.tol2bus.transDist::ReadExResp          1094838                       # Transaction distribution (Count)
system.tol2bus.transDist::ReadCleanReq           5137                       # Transaction distribution (Count)
system.tol2bus.transDist::ReadSharedReq        873448                       # Transaction distribution (Count)
system.tol2bus.pktCount_system.cpu0.icache.mem_side_port::system.l2.cpu_side_port         7570                       # Packet count per connected requestor and responder (Count)
system.tol2bus.pktCount_system.cpu0.dcache.mem_side_port::system.l2.cpu_side_port      1310265                       # Packet count per connected requestor and responder (Count)
system.tol2bus.pktCount_system.cpu1.icache.mem_side_port::system.l2.cpu_side_port          716                       # Packet count per connected requestor and responder (Count)
system.tol2bus.pktCount_system.cpu1.dcache.mem_side_port::system.l2.cpu_side_port       774147                       # Packet count per connected requestor and responder (Count)
system.tol2bus.pktCount_system.cpu2.icache.mem_side_port::system.l2.cpu_side_port          783                       # Packet count per connected requestor and responder (Count)
system.tol2bus.pktCount_system.cpu2.dcache.mem_side_port::system.l2.cpu_side_port       370622                       # Packet count per connected requestor and responder (Count)
system.tol2bus.pktCount_system.cpu3.icache.mem_side_port::system.l2.cpu_side_port          757                       # Packet count per connected requestor and responder (Count)
system.tol2bus.pktCount_system.cpu3.dcache.mem_side_port::system.l2.cpu_side_port       370578                       # Packet count per connected requestor and responder (Count)
system.tol2bus.pktCount_system.cpu4.icache.mem_side_port::system.l2.cpu_side_port          966                       # Packet count per connected requestor and responder (Count)
system.tol2bus.pktCount_system.cpu4.dcache.mem_side_port::system.l2.cpu_side_port       958402                       # Packet count per connected requestor and responder (Count)
system.tol2bus.pktCount_system.cpu5.icache.mem_side_port::system.l2.cpu_side_port          913                       # Packet count per connected requestor and responder (Count)
system.tol2bus.pktCount_system.cpu5.dcache.mem_side_port::system.l2.cpu_side_port       572047                       # Packet count per connected requestor and responder (Count)
system.tol2bus.pktCount_system.cpu6.icache.mem_side_port::system.l2.cpu_side_port          949                       # Packet count per connected requestor and responder (Count)
system.tol2bus.pktCount_system.cpu6.dcache.mem_side_port::system.l2.cpu_side_port       571291                       # Packet count per connected requestor and responder (Count)
system.tol2bus.pktCount_system.cpu7.icache.mem_side_port::system.l2.cpu_side_port          971                       # Packet count per connected requestor and responder (Count)
system.tol2bus.pktCount_system.cpu7.dcache.mem_side_port::system.l2.cpu_side_port       958766                       # Packet count per connected requestor and responder (Count)
system.tol2bus.pktCount::total                5899743                       # Packet count per connected requestor and responder (Count)
system.tol2bus.pktSize_system.cpu0.icache.mem_side_port::system.l2.cpu_side_port       317440                       # Cumulative packet size per connected requestor and responder (Byte)
system.tol2bus.pktSize_system.cpu0.dcache.mem_side_port::system.l2.cpu_side_port     47984384                       # Cumulative packet size per connected requestor and responder (Byte)
system.tol2bus.pktSize_system.cpu1.icache.mem_side_port::system.l2.cpu_side_port        26432                       # Cumulative packet size per connected requestor and responder (Byte)
system.tol2bus.pktSize_system.cpu1.dcache.mem_side_port::system.l2.cpu_side_port     27689472                       # Cumulative packet size per connected requestor and responder (Byte)
system.tol2bus.pktSize_system.cpu2.icache.mem_side_port::system.l2.cpu_side_port        28992                       # Cumulative packet size per connected requestor and responder (Byte)
system.tol2bus.pktSize_system.cpu2.dcache.mem_side_port::system.l2.cpu_side_port     11846656                       # Cumulative packet size per connected requestor and responder (Byte)
system.tol2bus.pktSize_system.cpu3.icache.mem_side_port::system.l2.cpu_side_port        27840                       # Cumulative packet size per connected requestor and responder (Byte)
system.tol2bus.pktSize_system.cpu3.dcache.mem_side_port::system.l2.cpu_side_port     11830272                       # Cumulative packet size per connected requestor and responder (Byte)
system.tol2bus.pktSize_system.cpu4.icache.mem_side_port::system.l2.cpu_side_port        36352                       # Cumulative packet size per connected requestor and responder (Byte)
system.tol2bus.pktSize_system.cpu4.dcache.mem_side_port::system.l2.cpu_side_port     33272128                       # Cumulative packet size per connected requestor and responder (Byte)
system.tol2bus.pktSize_system.cpu5.icache.mem_side_port::system.l2.cpu_side_port        34048                       # Cumulative packet size per connected requestor and responder (Byte)
system.tol2bus.pktSize_system.cpu5.dcache.mem_side_port::system.l2.cpu_side_port     19588096                       # Cumulative packet size per connected requestor and responder (Byte)
system.tol2bus.pktSize_system.cpu6.icache.mem_side_port::system.l2.cpu_side_port        35584                       # Cumulative packet size per connected requestor and responder (Byte)
system.tol2bus.pktSize_system.cpu6.dcache.mem_side_port::system.l2.cpu_side_port     19469312                       # Cumulative packet size per connected requestor and responder (Byte)
system.tol2bus.pktSize_system.cpu7.icache.mem_side_port::system.l2.cpu_side_port        36544                       # Cumulative packet size per connected requestor and responder (Byte)
system.tol2bus.pktSize_system.cpu7.dcache.mem_side_port::system.l2.cpu_side_port     33294400                       # Cumulative packet size per connected requestor and responder (Byte)
system.tol2bus.pktSize::total               205517952                       # Cumulative packet size per connected requestor and responder (Byte)
system.tol2bus.snoops                         2523584                       # Total snoops (Count)
system.tol2bus.snoopTraffic                  73646336                       # Total snoop traffic (Byte)
system.tol2bus.snoopFanout::samples           4487328                       # Request fanout histogram (Count)
system.tol2bus.snoopFanout::mean             0.250745                       # Request fanout histogram (Count)
system.tol2bus.snoopFanout::stdev            0.463132                       # Request fanout histogram (Count)
system.tol2bus.snoopFanout::underflows              0      0.00%      0.00% # Request fanout histogram (Count)
system.tol2bus.snoopFanout::0                 3393773     75.63%     75.63% # Request fanout histogram (Count)
system.tol2bus.snoopFanout::1                 1077269     24.01%     99.64% # Request fanout histogram (Count)
system.tol2bus.snoopFanout::2                    7755      0.17%     99.81% # Request fanout histogram (Count)
system.tol2bus.snoopFanout::3                    5417      0.12%     99.93% # Request fanout histogram (Count)
system.tol2bus.snoopFanout::4                    1047      0.02%     99.95% # Request fanout histogram (Count)
system.tol2bus.snoopFanout::5                    1012      0.02%     99.98% # Request fanout histogram (Count)
system.tol2bus.snoopFanout::6                     563      0.01%     99.99% # Request fanout histogram (Count)
system.tol2bus.snoopFanout::7                     415      0.01%    100.00% # Request fanout histogram (Count)
system.tol2bus.snoopFanout::8                      77      0.00%    100.00% # Request fanout histogram (Count)
system.tol2bus.snoopFanout::9                       0      0.00%    100.00% # Request fanout histogram (Count)
system.tol2bus.snoopFanout::10                      0      0.00%    100.00% # Request fanout histogram (Count)
system.tol2bus.snoopFanout::11                      0      0.00%    100.00% # Request fanout histogram (Count)
system.tol2bus.snoopFanout::12                      0      0.00%    100.00% # Request fanout histogram (Count)
system.tol2bus.snoopFanout::13                      0      0.00%    100.00% # Request fanout histogram (Count)
system.tol2bus.snoopFanout::14                      0      0.00%    100.00% # Request fanout histogram (Count)
system.tol2bus.snoopFanout::15                      0      0.00%    100.00% # Request fanout histogram (Count)
system.tol2bus.snoopFanout::16                      0      0.00%    100.00% # Request fanout histogram (Count)
system.tol2bus.snoopFanout::17                      0      0.00%    100.00% # Request fanout histogram (Count)
system.tol2bus.snoopFanout::18                      0      0.00%    100.00% # Request fanout histogram (Count)
system.tol2bus.snoopFanout::19                      0      0.00%    100.00% # Request fanout histogram (Count)
system.tol2bus.snoopFanout::20                      0      0.00%    100.00% # Request fanout histogram (Count)
system.tol2bus.snoopFanout::21                      0      0.00%    100.00% # Request fanout histogram (Count)
system.tol2bus.snoopFanout::22                      0      0.00%    100.00% # Request fanout histogram (Count)
system.tol2bus.snoopFanout::23                      0      0.00%    100.00% # Request fanout histogram (Count)
system.tol2bus.snoopFanout::24                      0      0.00%    100.00% # Request fanout histogram (Count)
system.tol2bus.snoopFanout::25                      0      0.00%    100.00% # Request fanout histogram (Count)
system.tol2bus.snoopFanout::26                      0      0.00%    100.00% # Request fanout histogram (Count)
system.tol2bus.snoopFanout::27                      0      0.00%    100.00% # Request fanout histogram (Count)
system.tol2bus.snoopFanout::28                      0      0.00%    100.00% # Request fanout histogram (Count)
system.tol2bus.snoopFanout::29                      0      0.00%    100.00% # Request fanout histogram (Count)
system.tol2bus.snoopFanout::30                      0      0.00%    100.00% # Request fanout histogram (Count)
system.tol2bus.snoopFanout::31                      0      0.00%    100.00% # Request fanout histogram (Count)
system.tol2bus.snoopFanout::32                      0      0.00%    100.00% # Request fanout histogram (Count)
system.tol2bus.snoopFanout::overflows               0      0.00%    100.00% # Request fanout histogram (Count)
system.tol2bus.snoopFanout::min_value               0                       # Request fanout histogram (Count)
system.tol2bus.snoopFanout::max_value               8                       # Request fanout histogram (Count)
system.tol2bus.snoopFanout::total             4487328                       # Request fanout histogram (Count)
system.tol2bus.power_state.pwrStateResidencyTicks::UNDEFINED 319440205000                       # Cumulative time (in ticks) in various power states (Tick)
system.tol2bus.reqLayer0.occupancy         3215522484                       # Layer occupancy (ticks) (Tick)
system.tol2bus.reqLayer0.utilization              0.0                       # Layer utilization (Ratio)
system.tol2bus.respLayer0.occupancy           3915480                       # Layer occupancy (ticks) (Tick)
system.tol2bus.respLayer0.utilization             0.0                       # Layer utilization (Ratio)
system.tol2bus.respLayer1.occupancy         657027488                       # Layer occupancy (ticks) (Tick)
system.tol2bus.respLayer1.utilization             0.0                       # Layer utilization (Ratio)
system.tol2bus.respLayer12.occupancy           485490                       # Layer occupancy (ticks) (Tick)
system.tol2bus.respLayer12.utilization            0.0                       # Layer utilization (Ratio)
system.tol2bus.respLayer13.occupancy        186859995                       # Layer occupancy (ticks) (Tick)
system.tol2bus.respLayer13.utilization            0.0                       # Layer utilization (Ratio)
system.tol2bus.respLayer16.occupancy           607434                       # Layer occupancy (ticks) (Tick)
system.tol2bus.respLayer16.utilization            0.0                       # Layer utilization (Ratio)
system.tol2bus.respLayer17.occupancy        480020797                       # Layer occupancy (ticks) (Tick)
system.tol2bus.respLayer17.utilization            0.0                       # Layer utilization (Ratio)
system.tol2bus.respLayer20.occupancy           587916                       # Layer occupancy (ticks) (Tick)
system.tol2bus.respLayer20.utilization            0.0                       # Layer utilization (Ratio)
system.tol2bus.respLayer21.occupancy        286968327                       # Layer occupancy (ticks) (Tick)
system.tol2bus.respLayer21.utilization            0.0                       # Layer utilization (Ratio)
system.tol2bus.respLayer24.occupancy           601439                       # Layer occupancy (ticks) (Tick)
system.tol2bus.respLayer24.utilization            0.0                       # Layer utilization (Ratio)
system.tol2bus.respLayer25.occupancy        286869878                       # Layer occupancy (ticks) (Tick)
system.tol2bus.respLayer25.utilization            0.0                       # Layer utilization (Ratio)
system.tol2bus.respLayer28.occupancy           610420                       # Layer occupancy (ticks) (Tick)
system.tol2bus.respLayer28.utilization            0.0                       # Layer utilization (Ratio)
system.tol2bus.respLayer29.occupancy        480579267                       # Layer occupancy (ticks) (Tick)
system.tol2bus.respLayer29.utilization            0.0                       # Layer utilization (Ratio)
system.tol2bus.respLayer4.occupancy            466939                       # Layer occupancy (ticks) (Tick)
system.tol2bus.respLayer4.utilization             0.0                       # Layer utilization (Ratio)
system.tol2bus.respLayer5.occupancy         388123277                       # Layer occupancy (ticks) (Tick)
system.tol2bus.respLayer5.utilization             0.0                       # Layer utilization (Ratio)
system.tol2bus.respLayer8.occupancy            522902                       # Layer occupancy (ticks) (Tick)
system.tol2bus.respLayer8.utilization             0.0                       # Layer utilization (Ratio)
system.tol2bus.respLayer9.occupancy         186911463                       # Layer occupancy (ticks) (Tick)
system.tol2bus.respLayer9.utilization             0.0                       # Layer utilization (Ratio)
system.tol2bus.snoop_filter.totRequests       3936001                       # Total number of requests made to the snoop filter. (Count)
system.tol2bus.snoop_filter.hitSingleRequests      1962130                       # Number of requests hitting in the snoop filter with a single holder of the requested data. (Count)
system.tol2bus.snoop_filter.hitMultiRequests        24041                       # Number of requests hitting in the snoop filter with multiple (>1) holders of the requested data. (Count)
system.tol2bus.snoop_filter.totSnoops         1069004                       # Total number of snoops made to the snoop filter. (Count)
system.tol2bus.snoop_filter.hitSingleSnoops      1060753                       # Number of snoops hitting in the snoop filter with a single holder of the requested data. (Count)
system.tol2bus.snoop_filter.hitMultiSnoops         8251                       # Number of snoops hitting in the snoop filter with multiple (>1) holders of the requested data. (Count)
system.voltage_domain.voltage                       1                       # Voltage in Volts (Volt)
system.workload.inst.arm                            0                       # number of arm instructions executed (Count)
system.workload.inst.quiesce                        0                       # number of quiesce instructions executed (Count)

---------- End Simulation Statistics   ----------
