
---------- Begin Simulation Statistics ----------
simSeconds                                   0.512412                       # Number of seconds simulated (Second)
simTicks                                 512411625500                       # Number of ticks simulated (Tick)
finalTick                                512411625500                       # Number of ticks from beginning of simulation (restored from checkpoints and never reset) (Tick)
simFreq                                  1000000000000                       # The number of ticks per simulated second ((Tick/Second))
hostSeconds                                   7977.57                       # Real time elapsed on the host (Second)
hostTickRate                                 64231544                       # The number of ticks simulated per host second (ticks/s) ((Tick/Second))
hostMemory                                    1332376                       # Number of bytes of host memory used (Byte)
simInsts                                   2586162598                       # Number of instructions simulated (Count)
simOps                                     4062753073                       # Number of ops (including micro ops) simulated (Count)
hostInstRate                                   324179                       # Simulator instruction rate (inst/s) ((Count/Second))
hostOpRate                                     509272                       # Simulator op (including micro ops) rate (op/s) ((Count/Second))
system.clk_domain.clock                          1000                       # Clock period in ticks (Tick)
system.cpu0.numCycles                      1028823958                       # Number of cpu cycles simulated (Cycle)
system.cpu0.cpi                              8.461964                       # CPI: cycles per instruction (core level) ((Cycle/Count))
system.cpu0.ipc                              0.118176                       # IPC: instructions per cycle (core level) ((Count/Cycle))
system.cpu0.numWorkItemsStarted                     0                       # Number of work items this cpu started (Count)
system.cpu0.numWorkItemsCompleted                   0                       # Number of work items this cpu completed (Count)
system.cpu0.commitStats0.numInsts           121582167                       # Number of instructions committed (thread level) (Count)
system.cpu0.commitStats0.numOps             226317163                       # Number of ops (including micro ops) committed (thread level) (Count)
system.cpu0.commitStats0.numInstsNotNOP             0                       # Number of instructions committed excluding NOPs or prefetches (Count)
system.cpu0.commitStats0.numOpsNotNOP               0                       # Number of Ops (including micro ops) Simulated (Count)
system.cpu0.commitStats0.cpi                 8.461964                       # CPI: cycles per instruction (thread level) ((Cycle/Count))
system.cpu0.commitStats0.ipc                 0.118176                       # IPC: instructions per cycle (thread level) ((Count/Cycle))
system.cpu0.commitStats0.numMemRefs                 0                       # Number of memory references committed (Count)
system.cpu0.commitStats0.numFpInsts           7136647                       # Number of float instructions (Count)
system.cpu0.commitStats0.numIntInsts        214206927                       # Number of integer instructions (Count)
system.cpu0.commitStats0.numLoadInsts        39071175                       # Number of load instructions (Count)
system.cpu0.commitStats0.numStoreInsts       22457298                       # Number of store instructions (Count)
system.cpu0.commitStats0.numVecInsts                0                       # Number of vector instructions (Count)
system.cpu0.commitStats0.committedInstType::No_OpClass      4502696      1.99%      1.99% # Class of committed instruction. (Count)
system.cpu0.commitStats0.committedInstType::IntAlu    154279728     68.17%     70.16% # Class of committed instruction. (Count)
system.cpu0.commitStats0.committedInstType::IntMult      2000177      0.88%     71.04% # Class of committed instruction. (Count)
system.cpu0.commitStats0.committedInstType::IntDiv          133      0.00%     71.04% # Class of committed instruction. (Count)
system.cpu0.commitStats0.committedInstType::FloatAdd      2001761      0.88%     71.93% # Class of committed instruction. (Count)
system.cpu0.commitStats0.committedInstType::FloatCmp            0      0.00%     71.93% # Class of committed instruction. (Count)
system.cpu0.commitStats0.committedInstType::FloatCvt            0      0.00%     71.93% # Class of committed instruction. (Count)
system.cpu0.commitStats0.committedInstType::FloatMult            0      0.00%     71.93% # Class of committed instruction. (Count)
system.cpu0.commitStats0.committedInstType::FloatMultAcc            0      0.00%     71.93% # Class of committed instruction. (Count)
system.cpu0.commitStats0.committedInstType::FloatDiv            0      0.00%     71.93% # Class of committed instruction. (Count)
system.cpu0.commitStats0.committedInstType::FloatMisc            0      0.00%     71.93% # Class of committed instruction. (Count)
system.cpu0.commitStats0.committedInstType::FloatSqrt            0      0.00%     71.93% # Class of committed instruction. (Count)
system.cpu0.commitStats0.committedInstType::SimdAdd           26      0.00%     71.93% # Class of committed instruction. (Count)
system.cpu0.commitStats0.committedInstType::SimdAddAcc            0      0.00%     71.93% # Class of committed instruction. (Count)
system.cpu0.commitStats0.committedInstType::SimdAlu          994      0.00%     71.93% # Class of committed instruction. (Count)
system.cpu0.commitStats0.committedInstType::SimdCmp            6      0.00%     71.93% # Class of committed instruction. (Count)
system.cpu0.commitStats0.committedInstType::SimdCvt          478      0.00%     71.93% # Class of committed instruction. (Count)
system.cpu0.commitStats0.committedInstType::SimdMisc      2002680      0.88%     72.81% # Class of committed instruction. (Count)
system.cpu0.commitStats0.committedInstType::SimdMult            0      0.00%     72.81% # Class of committed instruction. (Count)
system.cpu0.commitStats0.committedInstType::SimdMultAcc            0      0.00%     72.81% # Class of committed instruction. (Count)
system.cpu0.commitStats0.committedInstType::SimdMatMultAcc            0      0.00%     72.81% # Class of committed instruction. (Count)
system.cpu0.commitStats0.committedInstType::SimdShift            0      0.00%     72.81% # Class of committed instruction. (Count)
system.cpu0.commitStats0.committedInstType::SimdShiftAcc            0      0.00%     72.81% # Class of committed instruction. (Count)
system.cpu0.commitStats0.committedInstType::SimdDiv            0      0.00%     72.81% # Class of committed instruction. (Count)
system.cpu0.commitStats0.committedInstType::SimdSqrt            0      0.00%     72.81% # Class of committed instruction. (Count)
system.cpu0.commitStats0.committedInstType::SimdFloatAdd            3      0.00%     72.81% # Class of committed instruction. (Count)
system.cpu0.commitStats0.committedInstType::SimdFloatAlu            0      0.00%     72.81% # Class of committed instruction. (Count)
system.cpu0.commitStats0.committedInstType::SimdFloatCmp            0      0.00%     72.81% # Class of committed instruction. (Count)
system.cpu0.commitStats0.committedInstType::SimdFloatCvt            6      0.00%     72.81% # Class of committed instruction. (Count)
system.cpu0.commitStats0.committedInstType::SimdFloatDiv            2      0.00%     72.81% # Class of committed instruction. (Count)
system.cpu0.commitStats0.committedInstType::SimdFloatMisc            0      0.00%     72.81% # Class of committed instruction. (Count)
system.cpu0.commitStats0.committedInstType::SimdFloatMult            0      0.00%     72.81% # Class of committed instruction. (Count)
system.cpu0.commitStats0.committedInstType::SimdFloatMultAcc            0      0.00%     72.81% # Class of committed instruction. (Count)
system.cpu0.commitStats0.committedInstType::SimdFloatMatMultAcc            0      0.00%     72.81% # Class of committed instruction. (Count)
system.cpu0.commitStats0.committedInstType::SimdFloatSqrt            0      0.00%     72.81% # Class of committed instruction. (Count)
system.cpu0.commitStats0.committedInstType::SimdReduceAdd            0      0.00%     72.81% # Class of committed instruction. (Count)
system.cpu0.commitStats0.committedInstType::SimdReduceAlu            0      0.00%     72.81% # Class of committed instruction. (Count)
system.cpu0.commitStats0.committedInstType::SimdReduceCmp            0      0.00%     72.81% # Class of committed instruction. (Count)
system.cpu0.commitStats0.committedInstType::SimdFloatReduceAdd            0      0.00%     72.81% # Class of committed instruction. (Count)
system.cpu0.commitStats0.committedInstType::SimdFloatReduceCmp            0      0.00%     72.81% # Class of committed instruction. (Count)
system.cpu0.commitStats0.committedInstType::SimdAes            0      0.00%     72.81% # Class of committed instruction. (Count)
system.cpu0.commitStats0.committedInstType::SimdAesMix            0      0.00%     72.81% # Class of committed instruction. (Count)
system.cpu0.commitStats0.committedInstType::SimdSha1Hash            0      0.00%     72.81% # Class of committed instruction. (Count)
system.cpu0.commitStats0.committedInstType::SimdSha1Hash2            0      0.00%     72.81% # Class of committed instruction. (Count)
system.cpu0.commitStats0.committedInstType::SimdSha256Hash            0      0.00%     72.81% # Class of committed instruction. (Count)
system.cpu0.commitStats0.committedInstType::SimdSha256Hash2            0      0.00%     72.81% # Class of committed instruction. (Count)
system.cpu0.commitStats0.committedInstType::SimdShaSigma2            0      0.00%     72.81% # Class of committed instruction. (Count)
system.cpu0.commitStats0.committedInstType::SimdShaSigma3            0      0.00%     72.81% # Class of committed instruction. (Count)
system.cpu0.commitStats0.committedInstType::SimdPredAlu            0      0.00%     72.81% # Class of committed instruction. (Count)
system.cpu0.commitStats0.committedInstType::Matrix            0      0.00%     72.81% # Class of committed instruction. (Count)
system.cpu0.commitStats0.committedInstType::MatrixMov            0      0.00%     72.81% # Class of committed instruction. (Count)
system.cpu0.commitStats0.committedInstType::MatrixOP            0      0.00%     72.81% # Class of committed instruction. (Count)
system.cpu0.commitStats0.committedInstType::MemRead     39007316     17.24%     90.05% # Class of committed instruction. (Count)
system.cpu0.commitStats0.committedInstType::MemWrite     20391626      9.01%     99.06% # Class of committed instruction. (Count)
system.cpu0.commitStats0.committedInstType::FloatMemRead        63859      0.03%     99.09% # Class of committed instruction. (Count)
system.cpu0.commitStats0.committedInstType::FloatMemWrite      2065672      0.91%    100.00% # Class of committed instruction. (Count)
system.cpu0.commitStats0.committedInstType::IprAccess            0      0.00%    100.00% # Class of committed instruction. (Count)
system.cpu0.commitStats0.committedInstType::InstPrefetch            0      0.00%    100.00% # Class of committed instruction. (Count)
system.cpu0.commitStats0.committedInstType::SimdUnitStrideLoad            0      0.00%    100.00% # Class of committed instruction. (Count)
system.cpu0.commitStats0.committedInstType::SimdUnitStrideStore            0      0.00%    100.00% # Class of committed instruction. (Count)
system.cpu0.commitStats0.committedInstType::SimdUnitStrideMaskLoad            0      0.00%    100.00% # Class of committed instruction. (Count)
system.cpu0.commitStats0.committedInstType::SimdUnitStrideMaskStore            0      0.00%    100.00% # Class of committed instruction. (Count)
system.cpu0.commitStats0.committedInstType::SimdStridedLoad            0      0.00%    100.00% # Class of committed instruction. (Count)
system.cpu0.commitStats0.committedInstType::SimdStridedStore            0      0.00%    100.00% # Class of committed instruction. (Count)
system.cpu0.commitStats0.committedInstType::SimdIndexedLoad            0      0.00%    100.00% # Class of committed instruction. (Count)
system.cpu0.commitStats0.committedInstType::SimdIndexedStore            0      0.00%    100.00% # Class of committed instruction. (Count)
system.cpu0.commitStats0.committedInstType::SimdWholeRegisterLoad            0      0.00%    100.00% # Class of committed instruction. (Count)
system.cpu0.commitStats0.committedInstType::SimdWholeRegisterStore            0      0.00%    100.00% # Class of committed instruction. (Count)
system.cpu0.commitStats0.committedInstType::SimdUnitStrideFaultOnlyFirstLoad            0      0.00%    100.00% # Class of committed instruction. (Count)
system.cpu0.commitStats0.committedInstType::SimdUnitStrideSegmentedLoad            0      0.00%    100.00% # Class of committed instruction. (Count)
system.cpu0.commitStats0.committedInstType::SimdUnitStrideSegmentedStore            0      0.00%    100.00% # Class of committed instruction. (Count)
system.cpu0.commitStats0.committedInstType::SimdUnitStrideSegmentedFaultOnlyFirstLoad            0      0.00%    100.00% # Class of committed instruction. (Count)
system.cpu0.commitStats0.committedInstType::SimdStrideSegmentedLoad            0      0.00%    100.00% # Class of committed instruction. (Count)
system.cpu0.commitStats0.committedInstType::SimdStrideSegmentedStore            0      0.00%    100.00% # Class of committed instruction. (Count)
system.cpu0.commitStats0.committedInstType::SimdExt            0      0.00%    100.00% # Class of committed instruction. (Count)
system.cpu0.commitStats0.committedInstType::SimdFloatExt            0      0.00%    100.00% # Class of committed instruction. (Count)
system.cpu0.commitStats0.committedInstType::SimdConfig            0      0.00%    100.00% # Class of committed instruction. (Count)
system.cpu0.commitStats0.committedInstType::total    226317163                       # Class of committed instruction. (Count)
system.cpu0.commitStats0.committedControl::IsControl     22568395                       # Class of control type instructions committed (Count)
system.cpu0.commitStats0.committedControl::IsDirectControl     18065609                       # Class of control type instructions committed (Count)
system.cpu0.commitStats0.committedControl::IsIndirectControl      4502786                       # Class of control type instructions committed (Count)
system.cpu0.commitStats0.committedControl::IsCondControl     12565018                       # Class of control type instructions committed (Count)
system.cpu0.commitStats0.committedControl::IsUncondControl     10003377                       # Class of control type instructions committed (Count)
system.cpu0.commitStats0.committedControl::IsCall      4502169                       # Class of control type instructions committed (Count)
system.cpu0.commitStats0.committedControl::IsReturn      4502164                       # Class of control type instructions committed (Count)
system.cpu0.dcache.demandHits::cpu00.data     57305958                       # number of demand (read+write) hits (Count)
system.cpu0.dcache.demandHits::total         57305958                       # number of demand (read+write) hits (Count)
system.cpu0.dcache.overallHits::cpu00.data     57306328                       # number of overall hits (Count)
system.cpu0.dcache.overallHits::total        57306328                       # number of overall hits (Count)
system.cpu0.dcache.demandMisses::cpu00.data       212111                       # number of demand (read+write) misses (Count)
system.cpu0.dcache.demandMisses::total         212111                       # number of demand (read+write) misses (Count)
system.cpu0.dcache.overallMisses::cpu00.data       219553                       # number of overall misses (Count)
system.cpu0.dcache.overallMisses::total        219553                       # number of overall misses (Count)
system.cpu0.dcache.demandAccesses::cpu00.data     57518069                       # number of demand (read+write) accesses (Count)
system.cpu0.dcache.demandAccesses::total     57518069                       # number of demand (read+write) accesses (Count)
system.cpu0.dcache.overallAccesses::cpu00.data     57525881                       # number of overall (read+write) accesses (Count)
system.cpu0.dcache.overallAccesses::total     57525881                       # number of overall (read+write) accesses (Count)
system.cpu0.dcache.demandMissRate::cpu00.data     0.003688                       # miss rate for demand accesses (Ratio)
system.cpu0.dcache.demandMissRate::total     0.003688                       # miss rate for demand accesses (Ratio)
system.cpu0.dcache.overallMissRate::cpu00.data     0.003817                       # miss rate for overall accesses (Ratio)
system.cpu0.dcache.overallMissRate::total     0.003817                       # miss rate for overall accesses (Ratio)
system.cpu0.dcache.blockedCycles::no_mshrs            0                       # number of cycles access was blocked (Cycle)
system.cpu0.dcache.blockedCycles::no_targets            0                       # number of cycles access was blocked (Cycle)
system.cpu0.dcache.blockedCauses::no_mshrs            0                       # number of times access was blocked (Count)
system.cpu0.dcache.blockedCauses::no_targets            0                       # number of times access was blocked (Count)
system.cpu0.dcache.avgBlocked::no_mshrs           nan                       # average number of cycles each access was blocked ((Cycle/Count))
system.cpu0.dcache.avgBlocked::no_targets          nan                       # average number of cycles each access was blocked ((Cycle/Count))
system.cpu0.dcache.writebacks::writebacks       203231                       # number of writebacks (Count)
system.cpu0.dcache.writebacks::total           203231                       # number of writebacks (Count)
system.cpu0.dcache.replacements                217528                       # number of replacements (Count)
system.cpu0.dcache.LockedRMWReadReq.hits::cpu00.data      2000253                       # number of LockedRMWReadReq hits (Count)
system.cpu0.dcache.LockedRMWReadReq.hits::total      2000253                       # number of LockedRMWReadReq hits (Count)
system.cpu0.dcache.LockedRMWReadReq.misses::cpu00.data           73                       # number of LockedRMWReadReq misses (Count)
system.cpu0.dcache.LockedRMWReadReq.misses::total           73                       # number of LockedRMWReadReq misses (Count)
system.cpu0.dcache.LockedRMWReadReq.accesses::cpu00.data      2000326                       # number of LockedRMWReadReq accesses(hits+misses) (Count)
system.cpu0.dcache.LockedRMWReadReq.accesses::total      2000326                       # number of LockedRMWReadReq accesses(hits+misses) (Count)
system.cpu0.dcache.LockedRMWReadReq.missRate::cpu00.data     0.000036                       # miss rate for LockedRMWReadReq accesses (Ratio)
system.cpu0.dcache.LockedRMWReadReq.missRate::total     0.000036                       # miss rate for LockedRMWReadReq accesses (Ratio)
system.cpu0.dcache.LockedRMWWriteReq.hits::cpu00.data      2000326                       # number of LockedRMWWriteReq hits (Count)
system.cpu0.dcache.LockedRMWWriteReq.hits::total      2000326                       # number of LockedRMWWriteReq hits (Count)
system.cpu0.dcache.LockedRMWWriteReq.accesses::cpu00.data      2000326                       # number of LockedRMWWriteReq accesses(hits+misses) (Count)
system.cpu0.dcache.LockedRMWWriteReq.accesses::total      2000326                       # number of LockedRMWWriteReq accesses(hits+misses) (Count)
system.cpu0.dcache.ReadReq.hits::cpu00.data     37054607                       # number of ReadReq hits (Count)
system.cpu0.dcache.ReadReq.hits::total       37054607                       # number of ReadReq hits (Count)
system.cpu0.dcache.ReadReq.misses::cpu00.data         8457                       # number of ReadReq misses (Count)
system.cpu0.dcache.ReadReq.misses::total         8457                       # number of ReadReq misses (Count)
system.cpu0.dcache.ReadReq.accesses::cpu00.data     37063064                       # number of ReadReq accesses(hits+misses) (Count)
system.cpu0.dcache.ReadReq.accesses::total     37063064                       # number of ReadReq accesses(hits+misses) (Count)
system.cpu0.dcache.ReadReq.missRate::cpu00.data     0.000228                       # miss rate for ReadReq accesses (Ratio)
system.cpu0.dcache.ReadReq.missRate::total     0.000228                       # miss rate for ReadReq accesses (Ratio)
system.cpu0.dcache.SoftPFReq.hits::cpu00.data          370                       # number of SoftPFReq hits (Count)
system.cpu0.dcache.SoftPFReq.hits::total          370                       # number of SoftPFReq hits (Count)
system.cpu0.dcache.SoftPFReq.misses::cpu00.data         7442                       # number of SoftPFReq misses (Count)
system.cpu0.dcache.SoftPFReq.misses::total         7442                       # number of SoftPFReq misses (Count)
system.cpu0.dcache.SoftPFReq.accesses::cpu00.data         7812                       # number of SoftPFReq accesses(hits+misses) (Count)
system.cpu0.dcache.SoftPFReq.accesses::total         7812                       # number of SoftPFReq accesses(hits+misses) (Count)
system.cpu0.dcache.SoftPFReq.missRate::cpu00.data     0.952637                       # miss rate for SoftPFReq accesses (Ratio)
system.cpu0.dcache.SoftPFReq.missRate::total     0.952637                       # miss rate for SoftPFReq accesses (Ratio)
system.cpu0.dcache.WriteReq.hits::cpu00.data     20251351                       # number of WriteReq hits (Count)
system.cpu0.dcache.WriteReq.hits::total      20251351                       # number of WriteReq hits (Count)
system.cpu0.dcache.WriteReq.misses::cpu00.data       203654                       # number of WriteReq misses (Count)
system.cpu0.dcache.WriteReq.misses::total       203654                       # number of WriteReq misses (Count)
system.cpu0.dcache.WriteReq.accesses::cpu00.data     20455005                       # number of WriteReq accesses(hits+misses) (Count)
system.cpu0.dcache.WriteReq.accesses::total     20455005                       # number of WriteReq accesses(hits+misses) (Count)
system.cpu0.dcache.WriteReq.missRate::cpu00.data     0.009956                       # miss rate for WriteReq accesses (Ratio)
system.cpu0.dcache.WriteReq.missRate::total     0.009956                       # miss rate for WriteReq accesses (Ratio)
system.cpu0.dcache.power_state.pwrStateResidencyTicks::UNDEFINED 512411625500                       # Cumulative time (in ticks) in various power states (Tick)
system.cpu0.dcache.tags.tagsInUse          733.440482                       # Average ticks per tags in use ((Tick/Count))
system.cpu0.dcache.tags.totalRefs            61526533                       # Total number of references to valid blocks. (Count)
system.cpu0.dcache.tags.sampledRefs            219573                       # Sample count of references to valid blocks. (Count)
system.cpu0.dcache.tags.avgRefs            280.209921                       # Average number of references to valid blocks. ((Count/Count))
system.cpu0.dcache.tags.warmupTick               2000                       # The tick when the warmup percentage was hit. (Tick)
system.cpu0.dcache.tags.occupancies::cpu00.data   733.440482                       # Average occupied blocks per tick, per requestor ((Count/Tick))
system.cpu0.dcache.tags.avgOccs::cpu00.data     0.716250                       # Average percentage of cache occupancy ((Ratio/Tick))
system.cpu0.dcache.tags.avgOccs::total       0.716250                       # Average percentage of cache occupancy ((Ratio/Tick))
system.cpu0.dcache.tags.occupanciesTaskId::1024          185                       # Occupied blocks per task id (Count)
system.cpu0.dcache.tags.ageTaskId_1024::0          156                       # Occupied blocks per task id, per block age (Count)
system.cpu0.dcache.tags.ageTaskId_1024::4           29                       # Occupied blocks per task id, per block age (Count)
system.cpu0.dcache.tags.ratioOccsTaskId::1024     0.180664                       # Ratio of occupied blocks and all blocks, per task id (Ratio)
system.cpu0.dcache.tags.tagAccesses         123272639                       # Number of tag accesses (Count)
system.cpu0.dcache.tags.dataAccesses        123272639                       # Number of data accesses (Count)
system.cpu0.dcache.tags.power_state.pwrStateResidencyTicks::UNDEFINED 512411625500                       # Cumulative time (in ticks) in various power states (Tick)
system.cpu0.dtb_walker_cache.blockedCycles::no_mshrs            0                       # number of cycles access was blocked (Cycle)
system.cpu0.dtb_walker_cache.blockedCycles::no_targets            0                       # number of cycles access was blocked (Cycle)
system.cpu0.dtb_walker_cache.blockedCauses::no_mshrs            0                       # number of times access was blocked (Count)
system.cpu0.dtb_walker_cache.blockedCauses::no_targets            0                       # number of times access was blocked (Count)
system.cpu0.dtb_walker_cache.avgBlocked::no_mshrs          nan                       # average number of cycles each access was blocked ((Cycle/Count))
system.cpu0.dtb_walker_cache.avgBlocked::no_targets          nan                       # average number of cycles each access was blocked ((Cycle/Count))
system.cpu0.dtb_walker_cache.replacements            0                       # number of replacements (Count)
system.cpu0.dtb_walker_cache.power_state.pwrStateResidencyTicks::UNDEFINED 512411625500                       # Cumulative time (in ticks) in various power states (Tick)
system.cpu0.dtb_walker_cache.tags.tagsInUse            0                       # Average ticks per tags in use ((Tick/Count))
system.cpu0.dtb_walker_cache.tags.totalRefs            0                       # Total number of references to valid blocks. (Count)
system.cpu0.dtb_walker_cache.tags.sampledRefs            0                       # Sample count of references to valid blocks. (Count)
system.cpu0.dtb_walker_cache.tags.avgRefs          nan                       # Average number of references to valid blocks. ((Count/Count))
system.cpu0.dtb_walker_cache.tags.warmupTick            0                       # The tick when the warmup percentage was hit. (Tick)
system.cpu0.dtb_walker_cache.tags.tagAccesses            0                       # Number of tag accesses (Count)
system.cpu0.dtb_walker_cache.tags.dataAccesses            0                       # Number of data accesses (Count)
system.cpu0.dtb_walker_cache.tags.power_state.pwrStateResidencyTicks::UNDEFINED 512411625500                       # Cumulative time (in ticks) in various power states (Tick)
system.cpu0.exec_context.thread_0.numMatAluAccesses            0                       # Number of matrix alu accesses (Count)
system.cpu0.exec_context.thread_0.numCallsReturns      9004333                       # Number of times a function call or return occured (Count)
system.cpu0.exec_context.thread_0.numMatInsts            0                       # Number of matrix instructions (Count)
system.cpu0.exec_context.thread_0.numIdleCycles 769115694.855321                       # Number of idle cycles (Cycle)
system.cpu0.exec_context.thread_0.numBusyCycles 259708263.144679                       # Number of busy cycles (Cycle)
system.cpu0.exec_context.thread_0.notIdleFraction     0.252432                       # Percentage of non-idle cycles (Ratio)
system.cpu0.exec_context.thread_0.idleFraction     0.747568                       # Percentage of idle cycles (Ratio)
system.cpu0.executeStats0.numInsts                  0                       # Number of executed instructions (Count)
system.cpu0.executeStats0.numNop                    0                       # Number of nop insts executed (Count)
system.cpu0.executeStats0.numBranches               0                       # Number of branches executed (Count)
system.cpu0.executeStats0.numLoadInsts              0                       # Number of load instructions executed (Count)
system.cpu0.executeStats0.numStoreInsts      61528473                       # Number of stores executed (Count)
system.cpu0.executeStats0.instRate                  0                       # Inst execution rate ((Count/Cycle))
system.cpu0.executeStats0.numFpAluAccesses      7136647                       # Number of float alu accesses (Count)
system.cpu0.executeStats0.numFpRegReads       6075133                       # Number of times the floating registers were read (Count)
system.cpu0.executeStats0.numFpRegWrites      5070525                       # Number of times the floating registers were written (Count)
system.cpu0.executeStats0.numIntAluAccesses    214206927                       # Number of integer alu accesses (Count)
system.cpu0.executeStats0.numIntRegReads    247976895                       # Number of times the integer registers were read (Count)
system.cpu0.executeStats0.numIntRegWrites    155423322                       # Number of times the integer registers were written (Count)
system.cpu0.executeStats0.numMemRefs         61528473                       # Number of memory refs (Count)
system.cpu0.executeStats0.numMiscRegReads    105165098                       # Number of times the Misc registers were read (Count)
system.cpu0.executeStats0.numVecAluAccesses            0                       # Number of vector alu accesses (Count)
system.cpu0.executeStats0.numDiscardedOps            0                       # Number of ops (including micro ops) which were discarded before commit (Count)
system.cpu0.fetchStats0.numInsts            121582167                       # Number of instructions fetched (thread level) (Count)
system.cpu0.fetchStats0.numOps              226317163                       # Number of ops (including micro ops) fetched (thread level) (Count)
system.cpu0.fetchStats0.fetchRate            0.118176                       # Number of inst fetches per cycle ((Count/Cycle))
system.cpu0.fetchStats0.numBranches          22568395                       # Number of branches fetched (Count)
system.cpu0.fetchStats0.branchRate           0.021936                       # Number of branch fetches per cycle (Ratio)
system.cpu0.fetchStats0.numFetchSuspends            0                       # Number of times Execute suspended instruction fetching (Count)
system.cpu0.icache.demandHits::cpu00.inst    157961916                       # number of demand (read+write) hits (Count)
system.cpu0.icache.demandHits::total        157961916                       # number of demand (read+write) hits (Count)
system.cpu0.icache.overallHits::cpu00.inst    157961916                       # number of overall hits (Count)
system.cpu0.icache.overallHits::total       157961916                       # number of overall hits (Count)
system.cpu0.icache.demandMisses::cpu00.inst         2153                       # number of demand (read+write) misses (Count)
system.cpu0.icache.demandMisses::total           2153                       # number of demand (read+write) misses (Count)
system.cpu0.icache.overallMisses::cpu00.inst         2153                       # number of overall misses (Count)
system.cpu0.icache.overallMisses::total          2153                       # number of overall misses (Count)
system.cpu0.icache.demandAccesses::cpu00.inst    157964069                       # number of demand (read+write) accesses (Count)
system.cpu0.icache.demandAccesses::total    157964069                       # number of demand (read+write) accesses (Count)
system.cpu0.icache.overallAccesses::cpu00.inst    157964069                       # number of overall (read+write) accesses (Count)
system.cpu0.icache.overallAccesses::total    157964069                       # number of overall (read+write) accesses (Count)
system.cpu0.icache.demandMissRate::cpu00.inst     0.000014                       # miss rate for demand accesses (Ratio)
system.cpu0.icache.demandMissRate::total     0.000014                       # miss rate for demand accesses (Ratio)
system.cpu0.icache.overallMissRate::cpu00.inst     0.000014                       # miss rate for overall accesses (Ratio)
system.cpu0.icache.overallMissRate::total     0.000014                       # miss rate for overall accesses (Ratio)
system.cpu0.icache.blockedCycles::no_mshrs            0                       # number of cycles access was blocked (Cycle)
system.cpu0.icache.blockedCycles::no_targets            0                       # number of cycles access was blocked (Cycle)
system.cpu0.icache.blockedCauses::no_mshrs            0                       # number of times access was blocked (Count)
system.cpu0.icache.blockedCauses::no_targets            0                       # number of times access was blocked (Count)
system.cpu0.icache.avgBlocked::no_mshrs           nan                       # average number of cycles each access was blocked ((Cycle/Count))
system.cpu0.icache.avgBlocked::no_targets          nan                       # average number of cycles each access was blocked ((Cycle/Count))
system.cpu0.icache.writebacks::writebacks         1897                       # number of writebacks (Count)
system.cpu0.icache.writebacks::total             1897                       # number of writebacks (Count)
system.cpu0.icache.replacements                  1897                       # number of replacements (Count)
system.cpu0.icache.ReadReq.hits::cpu00.inst    157961916                       # number of ReadReq hits (Count)
system.cpu0.icache.ReadReq.hits::total      157961916                       # number of ReadReq hits (Count)
system.cpu0.icache.ReadReq.misses::cpu00.inst         2153                       # number of ReadReq misses (Count)
system.cpu0.icache.ReadReq.misses::total         2153                       # number of ReadReq misses (Count)
system.cpu0.icache.ReadReq.accesses::cpu00.inst    157964069                       # number of ReadReq accesses(hits+misses) (Count)
system.cpu0.icache.ReadReq.accesses::total    157964069                       # number of ReadReq accesses(hits+misses) (Count)
system.cpu0.icache.ReadReq.missRate::cpu00.inst     0.000014                       # miss rate for ReadReq accesses (Ratio)
system.cpu0.icache.ReadReq.missRate::total     0.000014                       # miss rate for ReadReq accesses (Ratio)
system.cpu0.icache.power_state.pwrStateResidencyTicks::UNDEFINED 512411625500                       # Cumulative time (in ticks) in various power states (Tick)
system.cpu0.icache.tags.tagsInUse          255.997849                       # Average ticks per tags in use ((Tick/Count))
system.cpu0.icache.tags.totalRefs           157964069                       # Total number of references to valid blocks. (Count)
system.cpu0.icache.tags.sampledRefs              2153                       # Sample count of references to valid blocks. (Count)
system.cpu0.icache.tags.avgRefs          73369.284255                       # Average number of references to valid blocks. ((Count/Count))
system.cpu0.icache.tags.warmupTick                  0                       # The tick when the warmup percentage was hit. (Tick)
system.cpu0.icache.tags.occupancies::cpu00.inst   255.997849                       # Average occupied blocks per tick, per requestor ((Count/Tick))
system.cpu0.icache.tags.avgOccs::cpu00.inst     0.999992                       # Average percentage of cache occupancy ((Ratio/Tick))
system.cpu0.icache.tags.avgOccs::total       0.999992                       # Average percentage of cache occupancy ((Ratio/Tick))
system.cpu0.icache.tags.occupanciesTaskId::1024          256                       # Occupied blocks per task id (Count)
system.cpu0.icache.tags.ageTaskId_1024::0          227                       # Occupied blocks per task id, per block age (Count)
system.cpu0.icache.tags.ageTaskId_1024::4           29                       # Occupied blocks per task id, per block age (Count)
system.cpu0.icache.tags.ratioOccsTaskId::1024            1                       # Ratio of occupied blocks and all blocks, per task id (Ratio)
system.cpu0.icache.tags.tagAccesses         315930291                       # Number of tag accesses (Count)
system.cpu0.icache.tags.dataAccesses        315930291                       # Number of data accesses (Count)
system.cpu0.icache.tags.power_state.pwrStateResidencyTicks::UNDEFINED 512411625500                       # Cumulative time (in ticks) in various power states (Tick)
system.cpu0.interrupts.clk_domain.clock          8000                       # Clock period in ticks (Tick)
system.cpu0.itb_walker_cache.blockedCycles::no_mshrs            0                       # number of cycles access was blocked (Cycle)
system.cpu0.itb_walker_cache.blockedCycles::no_targets            0                       # number of cycles access was blocked (Cycle)
system.cpu0.itb_walker_cache.blockedCauses::no_mshrs            0                       # number of times access was blocked (Count)
system.cpu0.itb_walker_cache.blockedCauses::no_targets            0                       # number of times access was blocked (Count)
system.cpu0.itb_walker_cache.avgBlocked::no_mshrs          nan                       # average number of cycles each access was blocked ((Cycle/Count))
system.cpu0.itb_walker_cache.avgBlocked::no_targets          nan                       # average number of cycles each access was blocked ((Cycle/Count))
system.cpu0.itb_walker_cache.replacements            0                       # number of replacements (Count)
system.cpu0.itb_walker_cache.power_state.pwrStateResidencyTicks::UNDEFINED 512411625500                       # Cumulative time (in ticks) in various power states (Tick)
system.cpu0.itb_walker_cache.tags.tagsInUse            0                       # Average ticks per tags in use ((Tick/Count))
system.cpu0.itb_walker_cache.tags.totalRefs            0                       # Total number of references to valid blocks. (Count)
system.cpu0.itb_walker_cache.tags.sampledRefs            0                       # Sample count of references to valid blocks. (Count)
system.cpu0.itb_walker_cache.tags.avgRefs          nan                       # Average number of references to valid blocks. ((Count/Count))
system.cpu0.itb_walker_cache.tags.warmupTick            0                       # The tick when the warmup percentage was hit. (Tick)
system.cpu0.itb_walker_cache.tags.tagAccesses            0                       # Number of tag accesses (Count)
system.cpu0.itb_walker_cache.tags.dataAccesses            0                       # Number of data accesses (Count)
system.cpu0.itb_walker_cache.tags.power_state.pwrStateResidencyTicks::UNDEFINED 512411625500                       # Cumulative time (in ticks) in various power states (Tick)
system.cpu0.mmu.dtb.rdAccesses               39071203                       # TLB accesses on read requests (Count)
system.cpu0.mmu.dtb.wrAccesses               22457304                       # TLB accesses on write requests (Count)
system.cpu0.mmu.dtb.rdMisses                      410                       # TLB misses on read requests (Count)
system.cpu0.mmu.dtb.wrMisses                     5183                       # TLB misses on write requests (Count)
system.cpu0.mmu.dtb.walker.power_state.pwrStateResidencyTicks::UNDEFINED 512411625500                       # Cumulative time (in ticks) in various power states (Tick)
system.cpu0.mmu.itb.rdAccesses                      0                       # TLB accesses on read requests (Count)
system.cpu0.mmu.itb.wrAccesses              157964069                       # TLB accesses on write requests (Count)
system.cpu0.mmu.itb.rdMisses                        0                       # TLB misses on read requests (Count)
system.cpu0.mmu.itb.wrMisses                      311                       # TLB misses on write requests (Count)
system.cpu0.mmu.itb.walker.power_state.pwrStateResidencyTicks::UNDEFINED 512411625500                       # Cumulative time (in ticks) in various power states (Tick)
system.cpu0.power_state.numTransitions              4                       # Number of power state transitions (Count)
system.cpu0.power_state.ticksClkGated::samples            2                       # Distribution of time spent in the clock gated state (Tick)
system.cpu0.power_state.ticksClkGated::mean 191531223750                       # Distribution of time spent in the clock gated state (Tick)
system.cpu0.power_state.ticksClkGated::stdev 102912640899.708633                       # Distribution of time spent in the clock gated state (Tick)
system.cpu0.power_state.ticksClkGated::1e+11-1.5e+11            1     50.00%     50.00% # Distribution of time spent in the clock gated state (Tick)
system.cpu0.power_state.ticksClkGated::2.5e+11-3e+11            1     50.00%    100.00% # Distribution of time spent in the clock gated state (Tick)
system.cpu0.power_state.ticksClkGated::min_value 118760997500                       # Distribution of time spent in the clock gated state (Tick)
system.cpu0.power_state.ticksClkGated::max_value 264301450000                       # Distribution of time spent in the clock gated state (Tick)
system.cpu0.power_state.ticksClkGated::total            2                       # Distribution of time spent in the clock gated state (Tick)
system.cpu0.power_state.pwrStateResidencyTicks::ON 129349178000                       # Cumulative time (in ticks) in various power states (Tick)
system.cpu0.power_state.pwrStateResidencyTicks::CLK_GATED 383062447500                       # Cumulative time (in ticks) in various power states (Tick)
system.cpu0.thread_0.numInsts                       0                       # Number of Instructions committed (Count)
system.cpu0.thread_0.numOps                         0                       # Number of Ops committed (Count)
system.cpu0.thread_0.numMemRefs                     0                       # Number of Memory References (Count)
system.cpu0.workload.numSyscalls                  116                       # Number of system calls (Count)
system.cpu1.numCycles                      1024823356                       # Number of cpu cycles simulated (Cycle)
system.cpu1.cpi                             10.989638                       # CPI: cycles per instruction (core level) ((Cycle/Count))
system.cpu1.ipc                              0.090995                       # IPC: instructions per cycle (core level) ((Count/Cycle))
system.cpu1.numWorkItemsStarted                     0                       # Number of work items this cpu started (Count)
system.cpu1.numWorkItemsCompleted                   0                       # Number of work items this cpu completed (Count)
system.cpu1.commitStats0.numInsts            93253608                       # Number of instructions committed (thread level) (Count)
system.cpu1.commitStats0.numOps             141868980                       # Number of ops (including micro ops) committed (thread level) (Count)
system.cpu1.commitStats0.numInstsNotNOP             0                       # Number of instructions committed excluding NOPs or prefetches (Count)
system.cpu1.commitStats0.numOpsNotNOP               0                       # Number of Ops (including micro ops) Simulated (Count)
system.cpu1.commitStats0.cpi                10.989638                       # CPI: cycles per instruction (thread level) ((Cycle/Count))
system.cpu1.commitStats0.ipc                 0.090995                       # IPC: instructions per cycle (thread level) ((Count/Cycle))
system.cpu1.commitStats0.numMemRefs                 0                       # Number of memory references committed (Count)
system.cpu1.commitStats0.numFpInsts           1000847                       # Number of float instructions (Count)
system.cpu1.commitStats0.numIntInsts        137314940                       # Number of integer instructions (Count)
system.cpu1.commitStats0.numLoadInsts        35804515                       # Number of load instructions (Count)
system.cpu1.commitStats0.numStoreInsts       19751215                       # Number of store instructions (Count)
system.cpu1.commitStats0.numVecInsts                0                       # Number of vector instructions (Count)
system.cpu1.commitStats0.committedInstType::No_OpClass      4250145      3.00%      3.00% # Class of committed instruction. (Count)
system.cpu1.commitStats0.committedInstType::IntAlu     82062715     57.84%     60.84% # Class of committed instruction. (Count)
system.cpu1.commitStats0.committedInstType::IntMult            8      0.00%     60.84% # Class of committed instruction. (Count)
system.cpu1.commitStats0.committedInstType::IntDiv            0      0.00%     60.84% # Class of committed instruction. (Count)
system.cpu1.commitStats0.committedInstType::FloatAdd          140      0.00%     60.84% # Class of committed instruction. (Count)
system.cpu1.commitStats0.committedInstType::FloatCmp            0      0.00%     60.84% # Class of committed instruction. (Count)
system.cpu1.commitStats0.committedInstType::FloatCvt            0      0.00%     60.84% # Class of committed instruction. (Count)
system.cpu1.commitStats0.committedInstType::FloatMult            0      0.00%     60.84% # Class of committed instruction. (Count)
system.cpu1.commitStats0.committedInstType::FloatMultAcc            0      0.00%     60.84% # Class of committed instruction. (Count)
system.cpu1.commitStats0.committedInstType::FloatDiv            0      0.00%     60.84% # Class of committed instruction. (Count)
system.cpu1.commitStats0.committedInstType::FloatMisc            0      0.00%     60.84% # Class of committed instruction. (Count)
system.cpu1.commitStats0.committedInstType::FloatSqrt            0      0.00%     60.84% # Class of committed instruction. (Count)
system.cpu1.commitStats0.committedInstType::SimdAdd            0      0.00%     60.84% # Class of committed instruction. (Count)
system.cpu1.commitStats0.committedInstType::SimdAddAcc            0      0.00%     60.84% # Class of committed instruction. (Count)
system.cpu1.commitStats0.committedInstType::SimdAlu           32      0.00%     60.84% # Class of committed instruction. (Count)
system.cpu1.commitStats0.committedInstType::SimdCmp            0      0.00%     60.84% # Class of committed instruction. (Count)
system.cpu1.commitStats0.committedInstType::SimdCvt           18      0.00%     60.84% # Class of committed instruction. (Count)
system.cpu1.commitStats0.committedInstType::SimdMisc          161      0.00%     60.84% # Class of committed instruction. (Count)
system.cpu1.commitStats0.committedInstType::SimdMult            0      0.00%     60.84% # Class of committed instruction. (Count)
system.cpu1.commitStats0.committedInstType::SimdMultAcc            0      0.00%     60.84% # Class of committed instruction. (Count)
system.cpu1.commitStats0.committedInstType::SimdMatMultAcc            0      0.00%     60.84% # Class of committed instruction. (Count)
system.cpu1.commitStats0.committedInstType::SimdShift            0      0.00%     60.84% # Class of committed instruction. (Count)
system.cpu1.commitStats0.committedInstType::SimdShiftAcc            0      0.00%     60.84% # Class of committed instruction. (Count)
system.cpu1.commitStats0.committedInstType::SimdDiv            0      0.00%     60.84% # Class of committed instruction. (Count)
system.cpu1.commitStats0.committedInstType::SimdSqrt            0      0.00%     60.84% # Class of committed instruction. (Count)
system.cpu1.commitStats0.committedInstType::SimdFloatAdd           16      0.00%     60.84% # Class of committed instruction. (Count)
system.cpu1.commitStats0.committedInstType::SimdFloatAlu            0      0.00%     60.84% # Class of committed instruction. (Count)
system.cpu1.commitStats0.committedInstType::SimdFloatCmp            0      0.00%     60.84% # Class of committed instruction. (Count)
system.cpu1.commitStats0.committedInstType::SimdFloatCvt            3      0.00%     60.84% # Class of committed instruction. (Count)
system.cpu1.commitStats0.committedInstType::SimdFloatDiv            0      0.00%     60.84% # Class of committed instruction. (Count)
system.cpu1.commitStats0.committedInstType::SimdFloatMisc            0      0.00%     60.84% # Class of committed instruction. (Count)
system.cpu1.commitStats0.committedInstType::SimdFloatMult           12      0.00%     60.84% # Class of committed instruction. (Count)
system.cpu1.commitStats0.committedInstType::SimdFloatMultAcc            0      0.00%     60.84% # Class of committed instruction. (Count)
system.cpu1.commitStats0.committedInstType::SimdFloatMatMultAcc            0      0.00%     60.84% # Class of committed instruction. (Count)
system.cpu1.commitStats0.committedInstType::SimdFloatSqrt            0      0.00%     60.84% # Class of committed instruction. (Count)
system.cpu1.commitStats0.committedInstType::SimdReduceAdd            0      0.00%     60.84% # Class of committed instruction. (Count)
system.cpu1.commitStats0.committedInstType::SimdReduceAlu            0      0.00%     60.84% # Class of committed instruction. (Count)
system.cpu1.commitStats0.committedInstType::SimdReduceCmp            0      0.00%     60.84% # Class of committed instruction. (Count)
system.cpu1.commitStats0.committedInstType::SimdFloatReduceAdd            0      0.00%     60.84% # Class of committed instruction. (Count)
system.cpu1.commitStats0.committedInstType::SimdFloatReduceCmp            0      0.00%     60.84% # Class of committed instruction. (Count)
system.cpu1.commitStats0.committedInstType::SimdAes            0      0.00%     60.84% # Class of committed instruction. (Count)
system.cpu1.commitStats0.committedInstType::SimdAesMix            0      0.00%     60.84% # Class of committed instruction. (Count)
system.cpu1.commitStats0.committedInstType::SimdSha1Hash            0      0.00%     60.84% # Class of committed instruction. (Count)
system.cpu1.commitStats0.committedInstType::SimdSha1Hash2            0      0.00%     60.84% # Class of committed instruction. (Count)
system.cpu1.commitStats0.committedInstType::SimdSha256Hash            0      0.00%     60.84% # Class of committed instruction. (Count)
system.cpu1.commitStats0.committedInstType::SimdSha256Hash2            0      0.00%     60.84% # Class of committed instruction. (Count)
system.cpu1.commitStats0.committedInstType::SimdShaSigma2            0      0.00%     60.84% # Class of committed instruction. (Count)
system.cpu1.commitStats0.committedInstType::SimdShaSigma3            0      0.00%     60.84% # Class of committed instruction. (Count)
system.cpu1.commitStats0.committedInstType::SimdPredAlu            0      0.00%     60.84% # Class of committed instruction. (Count)
system.cpu1.commitStats0.committedInstType::Matrix            0      0.00%     60.84% # Class of committed instruction. (Count)
system.cpu1.commitStats0.committedInstType::MatrixMov            0      0.00%     60.84% # Class of committed instruction. (Count)
system.cpu1.commitStats0.committedInstType::MatrixOP            0      0.00%     60.84% # Class of committed instruction. (Count)
system.cpu1.commitStats0.committedInstType::MemRead     35304470     24.89%     85.73% # Class of committed instruction. (Count)
system.cpu1.commitStats0.committedInstType::MemWrite     19250937     13.57%     99.29% # Class of committed instruction. (Count)
system.cpu1.commitStats0.committedInstType::FloatMemRead       500045      0.35%     99.65% # Class of committed instruction. (Count)
system.cpu1.commitStats0.committedInstType::FloatMemWrite       500278      0.35%    100.00% # Class of committed instruction. (Count)
system.cpu1.commitStats0.committedInstType::IprAccess            0      0.00%    100.00% # Class of committed instruction. (Count)
system.cpu1.commitStats0.committedInstType::InstPrefetch            0      0.00%    100.00% # Class of committed instruction. (Count)
system.cpu1.commitStats0.committedInstType::SimdUnitStrideLoad            0      0.00%    100.00% # Class of committed instruction. (Count)
system.cpu1.commitStats0.committedInstType::SimdUnitStrideStore            0      0.00%    100.00% # Class of committed instruction. (Count)
system.cpu1.commitStats0.committedInstType::SimdUnitStrideMaskLoad            0      0.00%    100.00% # Class of committed instruction. (Count)
system.cpu1.commitStats0.committedInstType::SimdUnitStrideMaskStore            0      0.00%    100.00% # Class of committed instruction. (Count)
system.cpu1.commitStats0.committedInstType::SimdStridedLoad            0      0.00%    100.00% # Class of committed instruction. (Count)
system.cpu1.commitStats0.committedInstType::SimdStridedStore            0      0.00%    100.00% # Class of committed instruction. (Count)
system.cpu1.commitStats0.committedInstType::SimdIndexedLoad            0      0.00%    100.00% # Class of committed instruction. (Count)
system.cpu1.commitStats0.committedInstType::SimdIndexedStore            0      0.00%    100.00% # Class of committed instruction. (Count)
system.cpu1.commitStats0.committedInstType::SimdWholeRegisterLoad            0      0.00%    100.00% # Class of committed instruction. (Count)
system.cpu1.commitStats0.committedInstType::SimdWholeRegisterStore            0      0.00%    100.00% # Class of committed instruction. (Count)
system.cpu1.commitStats0.committedInstType::SimdUnitStrideFaultOnlyFirstLoad            0      0.00%    100.00% # Class of committed instruction. (Count)
system.cpu1.commitStats0.committedInstType::SimdUnitStrideSegmentedLoad            0      0.00%    100.00% # Class of committed instruction. (Count)
system.cpu1.commitStats0.committedInstType::SimdUnitStrideSegmentedStore            0      0.00%    100.00% # Class of committed instruction. (Count)
system.cpu1.commitStats0.committedInstType::SimdUnitStrideSegmentedFaultOnlyFirstLoad            0      0.00%    100.00% # Class of committed instruction. (Count)
system.cpu1.commitStats0.committedInstType::SimdStrideSegmentedLoad            0      0.00%    100.00% # Class of committed instruction. (Count)
system.cpu1.commitStats0.committedInstType::SimdStrideSegmentedStore            0      0.00%    100.00% # Class of committed instruction. (Count)
system.cpu1.commitStats0.committedInstType::SimdExt            0      0.00%    100.00% # Class of committed instruction. (Count)
system.cpu1.commitStats0.committedInstType::SimdFloatExt            0      0.00%    100.00% # Class of committed instruction. (Count)
system.cpu1.commitStats0.committedInstType::SimdConfig            0      0.00%    100.00% # Class of committed instruction. (Count)
system.cpu1.commitStats0.committedInstType::total    141868980                       # Class of committed instruction. (Count)
system.cpu1.commitStats0.committedControl::IsControl     12138926                       # Class of control type instructions committed (Count)
system.cpu1.commitStats0.committedControl::IsDirectControl      8138777                       # Class of control type instructions committed (Count)
system.cpu1.commitStats0.committedControl::IsIndirectControl      4000149                       # Class of control type instructions committed (Count)
system.cpu1.commitStats0.committedControl::IsCondControl      3638615                       # Class of control type instructions committed (Count)
system.cpu1.commitStats0.committedControl::IsUncondControl      8500311                       # Class of control type instructions committed (Count)
system.cpu1.commitStats0.committedControl::IsCall      4000113                       # Class of control type instructions committed (Count)
system.cpu1.commitStats0.committedControl::IsReturn      4000110                       # Class of control type instructions committed (Count)
system.cpu1.dcache.demandHits::cpu01.data     55055438                       # number of demand (read+write) hits (Count)
system.cpu1.dcache.demandHits::total         55055438                       # number of demand (read+write) hits (Count)
system.cpu1.dcache.overallHits::cpu01.data     55055438                       # number of overall hits (Count)
system.cpu1.dcache.overallHits::total        55055438                       # number of overall hits (Count)
system.cpu1.dcache.demandMisses::cpu01.data       250201                       # number of demand (read+write) misses (Count)
system.cpu1.dcache.demandMisses::total         250201                       # number of demand (read+write) misses (Count)
system.cpu1.dcache.overallMisses::cpu01.data       250201                       # number of overall misses (Count)
system.cpu1.dcache.overallMisses::total        250201                       # number of overall misses (Count)
system.cpu1.dcache.demandAccesses::cpu01.data     55305639                       # number of demand (read+write) accesses (Count)
system.cpu1.dcache.demandAccesses::total     55305639                       # number of demand (read+write) accesses (Count)
system.cpu1.dcache.overallAccesses::cpu01.data     55305639                       # number of overall (read+write) accesses (Count)
system.cpu1.dcache.overallAccesses::total     55305639                       # number of overall (read+write) accesses (Count)
system.cpu1.dcache.demandMissRate::cpu01.data     0.004524                       # miss rate for demand accesses (Ratio)
system.cpu1.dcache.demandMissRate::total     0.004524                       # miss rate for demand accesses (Ratio)
system.cpu1.dcache.overallMissRate::cpu01.data     0.004524                       # miss rate for overall accesses (Ratio)
system.cpu1.dcache.overallMissRate::total     0.004524                       # miss rate for overall accesses (Ratio)
system.cpu1.dcache.blockedCycles::no_mshrs            0                       # number of cycles access was blocked (Cycle)
system.cpu1.dcache.blockedCycles::no_targets            0                       # number of cycles access was blocked (Cycle)
system.cpu1.dcache.blockedCauses::no_mshrs            0                       # number of times access was blocked (Count)
system.cpu1.dcache.blockedCauses::no_targets            0                       # number of times access was blocked (Count)
system.cpu1.dcache.avgBlocked::no_mshrs           nan                       # average number of cycles each access was blocked ((Cycle/Count))
system.cpu1.dcache.avgBlocked::no_targets          nan                       # average number of cycles each access was blocked ((Cycle/Count))
system.cpu1.dcache.writebacks::writebacks       126487                       # number of writebacks (Count)
system.cpu1.dcache.writebacks::total           126487                       # number of writebacks (Count)
system.cpu1.dcache.replacements                249123                       # number of replacements (Count)
system.cpu1.dcache.LockedRMWReadReq.hits::cpu01.data           26                       # number of LockedRMWReadReq hits (Count)
system.cpu1.dcache.LockedRMWReadReq.hits::total           26                       # number of LockedRMWReadReq hits (Count)
system.cpu1.dcache.LockedRMWReadReq.misses::cpu01.data           21                       # number of LockedRMWReadReq misses (Count)
system.cpu1.dcache.LockedRMWReadReq.misses::total           21                       # number of LockedRMWReadReq misses (Count)
system.cpu1.dcache.LockedRMWReadReq.accesses::cpu01.data           47                       # number of LockedRMWReadReq accesses(hits+misses) (Count)
system.cpu1.dcache.LockedRMWReadReq.accesses::total           47                       # number of LockedRMWReadReq accesses(hits+misses) (Count)
system.cpu1.dcache.LockedRMWReadReq.missRate::cpu01.data     0.446809                       # miss rate for LockedRMWReadReq accesses (Ratio)
system.cpu1.dcache.LockedRMWReadReq.missRate::total     0.446809                       # miss rate for LockedRMWReadReq accesses (Ratio)
system.cpu1.dcache.LockedRMWWriteReq.hits::cpu01.data           47                       # number of LockedRMWWriteReq hits (Count)
system.cpu1.dcache.LockedRMWWriteReq.hits::total           47                       # number of LockedRMWWriteReq hits (Count)
system.cpu1.dcache.LockedRMWWriteReq.accesses::cpu01.data           47                       # number of LockedRMWWriteReq accesses(hits+misses) (Count)
system.cpu1.dcache.LockedRMWWriteReq.accesses::total           47                       # number of LockedRMWWriteReq accesses(hits+misses) (Count)
system.cpu1.dcache.ReadReq.hits::cpu01.data     35679388                       # number of ReadReq hits (Count)
system.cpu1.dcache.ReadReq.hits::total       35679388                       # number of ReadReq hits (Count)
system.cpu1.dcache.ReadReq.misses::cpu01.data       125080                       # number of ReadReq misses (Count)
system.cpu1.dcache.ReadReq.misses::total       125080                       # number of ReadReq misses (Count)
system.cpu1.dcache.ReadReq.accesses::cpu01.data     35804468                       # number of ReadReq accesses(hits+misses) (Count)
system.cpu1.dcache.ReadReq.accesses::total     35804468                       # number of ReadReq accesses(hits+misses) (Count)
system.cpu1.dcache.ReadReq.missRate::cpu01.data     0.003493                       # miss rate for ReadReq accesses (Ratio)
system.cpu1.dcache.ReadReq.missRate::total     0.003493                       # miss rate for ReadReq accesses (Ratio)
system.cpu1.dcache.WriteReq.hits::cpu01.data     19376050                       # number of WriteReq hits (Count)
system.cpu1.dcache.WriteReq.hits::total      19376050                       # number of WriteReq hits (Count)
system.cpu1.dcache.WriteReq.misses::cpu01.data       125121                       # number of WriteReq misses (Count)
system.cpu1.dcache.WriteReq.misses::total       125121                       # number of WriteReq misses (Count)
system.cpu1.dcache.WriteReq.accesses::cpu01.data     19501171                       # number of WriteReq accesses(hits+misses) (Count)
system.cpu1.dcache.WriteReq.accesses::total     19501171                       # number of WriteReq accesses(hits+misses) (Count)
system.cpu1.dcache.WriteReq.missRate::cpu01.data     0.006416                       # miss rate for WriteReq accesses (Ratio)
system.cpu1.dcache.WriteReq.missRate::total     0.006416                       # miss rate for WriteReq accesses (Ratio)
system.cpu1.dcache.power_state.pwrStateResidencyTicks::UNDEFINED 512411625500                       # Cumulative time (in ticks) in various power states (Tick)
system.cpu1.dcache.tags.tagsInUse          246.262594                       # Average ticks per tags in use ((Tick/Count))
system.cpu1.dcache.tags.totalRefs            55305733                       # Total number of references to valid blocks. (Count)
system.cpu1.dcache.tags.sampledRefs            250197                       # Sample count of references to valid blocks. (Count)
system.cpu1.dcache.tags.avgRefs            221.048746                       # Average number of references to valid blocks. ((Count/Count))
system.cpu1.dcache.tags.warmupTick       114911777500                       # The tick when the warmup percentage was hit. (Tick)
system.cpu1.dcache.tags.occupancies::cpu01.data   246.262594                       # Average occupied blocks per tick, per requestor ((Count/Tick))
system.cpu1.dcache.tags.avgOccs::cpu01.data     0.240491                       # Average percentage of cache occupancy ((Ratio/Tick))
system.cpu1.dcache.tags.avgOccs::total       0.240491                       # Average percentage of cache occupancy ((Ratio/Tick))
system.cpu1.dcache.tags.occupanciesTaskId::1024         1022                       # Occupied blocks per task id (Count)
system.cpu1.dcache.tags.ageTaskId_1024::0          412                       # Occupied blocks per task id, per block age (Count)
system.cpu1.dcache.tags.ageTaskId_1024::1          610                       # Occupied blocks per task id, per block age (Count)
system.cpu1.dcache.tags.ratioOccsTaskId::1024     0.998047                       # Ratio of occupied blocks and all blocks, per task id (Ratio)
system.cpu1.dcache.tags.tagAccesses         110861663                       # Number of tag accesses (Count)
system.cpu1.dcache.tags.dataAccesses        110861663                       # Number of data accesses (Count)
system.cpu1.dcache.tags.power_state.pwrStateResidencyTicks::UNDEFINED 512411625500                       # Cumulative time (in ticks) in various power states (Tick)
system.cpu1.dtb_walker_cache.blockedCycles::no_mshrs            0                       # number of cycles access was blocked (Cycle)
system.cpu1.dtb_walker_cache.blockedCycles::no_targets            0                       # number of cycles access was blocked (Cycle)
system.cpu1.dtb_walker_cache.blockedCauses::no_mshrs            0                       # number of times access was blocked (Count)
system.cpu1.dtb_walker_cache.blockedCauses::no_targets            0                       # number of times access was blocked (Count)
system.cpu1.dtb_walker_cache.avgBlocked::no_mshrs          nan                       # average number of cycles each access was blocked ((Cycle/Count))
system.cpu1.dtb_walker_cache.avgBlocked::no_targets          nan                       # average number of cycles each access was blocked ((Cycle/Count))
system.cpu1.dtb_walker_cache.replacements            0                       # number of replacements (Count)
system.cpu1.dtb_walker_cache.power_state.pwrStateResidencyTicks::UNDEFINED 512411625500                       # Cumulative time (in ticks) in various power states (Tick)
system.cpu1.dtb_walker_cache.tags.tagsInUse            0                       # Average ticks per tags in use ((Tick/Count))
system.cpu1.dtb_walker_cache.tags.totalRefs            0                       # Total number of references to valid blocks. (Count)
system.cpu1.dtb_walker_cache.tags.sampledRefs            0                       # Sample count of references to valid blocks. (Count)
system.cpu1.dtb_walker_cache.tags.avgRefs          nan                       # Average number of references to valid blocks. ((Count/Count))
system.cpu1.dtb_walker_cache.tags.warmupTick            0                       # The tick when the warmup percentage was hit. (Tick)
system.cpu1.dtb_walker_cache.tags.tagAccesses            0                       # Number of tag accesses (Count)
system.cpu1.dtb_walker_cache.tags.dataAccesses            0                       # Number of data accesses (Count)
system.cpu1.dtb_walker_cache.tags.power_state.pwrStateResidencyTicks::UNDEFINED 512411625500                       # Cumulative time (in ticks) in various power states (Tick)
system.cpu1.exec_context.thread_0.numMatAluAccesses            0                       # Number of matrix alu accesses (Count)
system.cpu1.exec_context.thread_0.numCallsReturns      8000223                       # Number of times a function call or return occured (Count)
system.cpu1.exec_context.thread_0.numMatInsts            0                       # Number of matrix instructions (Count)
system.cpu1.exec_context.thread_0.numIdleCycles 854408742.540217                       # Number of idle cycles (Cycle)
system.cpu1.exec_context.thread_0.numBusyCycles 170414613.459783                       # Number of busy cycles (Cycle)
system.cpu1.exec_context.thread_0.notIdleFraction     0.166287                       # Percentage of non-idle cycles (Ratio)
system.cpu1.exec_context.thread_0.idleFraction     0.833713                       # Percentage of idle cycles (Ratio)
system.cpu1.executeStats0.numInsts                  0                       # Number of executed instructions (Count)
system.cpu1.executeStats0.numNop                    0                       # Number of nop insts executed (Count)
system.cpu1.executeStats0.numBranches               0                       # Number of branches executed (Count)
system.cpu1.executeStats0.numLoadInsts              0                       # Number of load instructions executed (Count)
system.cpu1.executeStats0.numStoreInsts      55555730                       # Number of stores executed (Count)
system.cpu1.executeStats0.instRate                  0                       # Inst execution rate ((Count/Cycle))
system.cpu1.executeStats0.numFpAluAccesses      1000847                       # Number of float alu accesses (Count)
system.cpu1.executeStats0.numFpRegReads        500931                       # Number of times the floating registers were read (Count)
system.cpu1.executeStats0.numFpRegWrites       500545                       # Number of times the floating registers were written (Count)
system.cpu1.executeStats0.numIntAluAccesses    137314940                       # Number of integer alu accesses (Count)
system.cpu1.executeStats0.numIntRegReads    166784767                       # Number of times the integer registers were read (Count)
system.cpu1.executeStats0.numIntRegWrites    100317448                       # Number of times the integer registers were written (Count)
system.cpu1.executeStats0.numMemRefs         55555730                       # Number of memory refs (Count)
system.cpu1.executeStats0.numMiscRegReads     75833400                       # Number of times the Misc registers were read (Count)
system.cpu1.executeStats0.numVecAluAccesses            0                       # Number of vector alu accesses (Count)
system.cpu1.executeStats0.numDiscardedOps            0                       # Number of ops (including micro ops) which were discarded before commit (Count)
system.cpu1.fetchStats0.numInsts             93253608                       # Number of instructions fetched (thread level) (Count)
system.cpu1.fetchStats0.numOps              141868980                       # Number of ops (including micro ops) fetched (thread level) (Count)
system.cpu1.fetchStats0.fetchRate            0.090995                       # Number of inst fetches per cycle ((Count/Cycle))
system.cpu1.fetchStats0.numBranches          12138926                       # Number of branches fetched (Count)
system.cpu1.fetchStats0.branchRate           0.011845                       # Number of branch fetches per cycle (Ratio)
system.cpu1.fetchStats0.numFetchSuspends            0                       # Number of times Execute suspended instruction fetching (Count)
system.cpu1.icache.demandHits::cpu01.inst    122049036                       # number of demand (read+write) hits (Count)
system.cpu1.icache.demandHits::total        122049036                       # number of demand (read+write) hits (Count)
system.cpu1.icache.overallHits::cpu01.inst    122049036                       # number of overall hits (Count)
system.cpu1.icache.overallHits::total       122049036                       # number of overall hits (Count)
system.cpu1.icache.demandMisses::cpu01.inst          291                       # number of demand (read+write) misses (Count)
system.cpu1.icache.demandMisses::total            291                       # number of demand (read+write) misses (Count)
system.cpu1.icache.overallMisses::cpu01.inst          291                       # number of overall misses (Count)
system.cpu1.icache.overallMisses::total           291                       # number of overall misses (Count)
system.cpu1.icache.demandAccesses::cpu01.inst    122049327                       # number of demand (read+write) accesses (Count)
system.cpu1.icache.demandAccesses::total    122049327                       # number of demand (read+write) accesses (Count)
system.cpu1.icache.overallAccesses::cpu01.inst    122049327                       # number of overall (read+write) accesses (Count)
system.cpu1.icache.overallAccesses::total    122049327                       # number of overall (read+write) accesses (Count)
system.cpu1.icache.demandMissRate::cpu01.inst     0.000002                       # miss rate for demand accesses (Ratio)
system.cpu1.icache.demandMissRate::total     0.000002                       # miss rate for demand accesses (Ratio)
system.cpu1.icache.overallMissRate::cpu01.inst     0.000002                       # miss rate for overall accesses (Ratio)
system.cpu1.icache.overallMissRate::total     0.000002                       # miss rate for overall accesses (Ratio)
system.cpu1.icache.blockedCycles::no_mshrs            0                       # number of cycles access was blocked (Cycle)
system.cpu1.icache.blockedCycles::no_targets            0                       # number of cycles access was blocked (Cycle)
system.cpu1.icache.blockedCauses::no_mshrs            0                       # number of times access was blocked (Count)
system.cpu1.icache.blockedCauses::no_targets            0                       # number of times access was blocked (Count)
system.cpu1.icache.avgBlocked::no_mshrs           nan                       # average number of cycles each access was blocked ((Cycle/Count))
system.cpu1.icache.avgBlocked::no_targets          nan                       # average number of cycles each access was blocked ((Cycle/Count))
system.cpu1.icache.writebacks::writebacks           95                       # number of writebacks (Count)
system.cpu1.icache.writebacks::total               95                       # number of writebacks (Count)
system.cpu1.icache.replacements                    95                       # number of replacements (Count)
system.cpu1.icache.ReadReq.hits::cpu01.inst    122049036                       # number of ReadReq hits (Count)
system.cpu1.icache.ReadReq.hits::total      122049036                       # number of ReadReq hits (Count)
system.cpu1.icache.ReadReq.misses::cpu01.inst          291                       # number of ReadReq misses (Count)
system.cpu1.icache.ReadReq.misses::total          291                       # number of ReadReq misses (Count)
system.cpu1.icache.ReadReq.accesses::cpu01.inst    122049327                       # number of ReadReq accesses(hits+misses) (Count)
system.cpu1.icache.ReadReq.accesses::total    122049327                       # number of ReadReq accesses(hits+misses) (Count)
system.cpu1.icache.ReadReq.missRate::cpu01.inst     0.000002                       # miss rate for ReadReq accesses (Ratio)
system.cpu1.icache.ReadReq.missRate::total     0.000002                       # miss rate for ReadReq accesses (Ratio)
system.cpu1.icache.power_state.pwrStateResidencyTicks::UNDEFINED 512411625500                       # Cumulative time (in ticks) in various power states (Tick)
system.cpu1.icache.tags.tagsInUse          129.452715                       # Average ticks per tags in use ((Tick/Count))
system.cpu1.icache.tags.totalRefs           122049327                       # Total number of references to valid blocks. (Count)
system.cpu1.icache.tags.sampledRefs               291                       # Sample count of references to valid blocks. (Count)
system.cpu1.icache.tags.avgRefs          419413.494845                       # Average number of references to valid blocks. ((Count/Count))
system.cpu1.icache.tags.warmupTick       114911771000                       # The tick when the warmup percentage was hit. (Tick)
system.cpu1.icache.tags.occupancies::cpu01.inst   129.452715                       # Average occupied blocks per tick, per requestor ((Count/Tick))
system.cpu1.icache.tags.avgOccs::cpu01.inst     0.505675                       # Average percentage of cache occupancy ((Ratio/Tick))
system.cpu1.icache.tags.avgOccs::total       0.505675                       # Average percentage of cache occupancy ((Ratio/Tick))
system.cpu1.icache.tags.occupanciesTaskId::1024          196                       # Occupied blocks per task id (Count)
system.cpu1.icache.tags.ageTaskId_1024::0           17                       # Occupied blocks per task id, per block age (Count)
system.cpu1.icache.tags.ageTaskId_1024::3           26                       # Occupied blocks per task id, per block age (Count)
system.cpu1.icache.tags.ageTaskId_1024::4          153                       # Occupied blocks per task id, per block age (Count)
system.cpu1.icache.tags.ratioOccsTaskId::1024     0.765625                       # Ratio of occupied blocks and all blocks, per task id (Ratio)
system.cpu1.icache.tags.tagAccesses         244098945                       # Number of tag accesses (Count)
system.cpu1.icache.tags.dataAccesses        244098945                       # Number of data accesses (Count)
system.cpu1.icache.tags.power_state.pwrStateResidencyTicks::UNDEFINED 512411625500                       # Cumulative time (in ticks) in various power states (Tick)
system.cpu1.interrupts.clk_domain.clock          8000                       # Clock period in ticks (Tick)
system.cpu1.itb_walker_cache.blockedCycles::no_mshrs            0                       # number of cycles access was blocked (Cycle)
system.cpu1.itb_walker_cache.blockedCycles::no_targets            0                       # number of cycles access was blocked (Cycle)
system.cpu1.itb_walker_cache.blockedCauses::no_mshrs            0                       # number of times access was blocked (Count)
system.cpu1.itb_walker_cache.blockedCauses::no_targets            0                       # number of times access was blocked (Count)
system.cpu1.itb_walker_cache.avgBlocked::no_mshrs          nan                       # average number of cycles each access was blocked ((Cycle/Count))
system.cpu1.itb_walker_cache.avgBlocked::no_targets          nan                       # average number of cycles each access was blocked ((Cycle/Count))
system.cpu1.itb_walker_cache.replacements            0                       # number of replacements (Count)
system.cpu1.itb_walker_cache.power_state.pwrStateResidencyTicks::UNDEFINED 512411625500                       # Cumulative time (in ticks) in various power states (Tick)
system.cpu1.itb_walker_cache.tags.tagsInUse            0                       # Average ticks per tags in use ((Tick/Count))
system.cpu1.itb_walker_cache.tags.totalRefs            0                       # Total number of references to valid blocks. (Count)
system.cpu1.itb_walker_cache.tags.sampledRefs            0                       # Sample count of references to valid blocks. (Count)
system.cpu1.itb_walker_cache.tags.avgRefs          nan                       # Average number of references to valid blocks. ((Count/Count))
system.cpu1.itb_walker_cache.tags.warmupTick            0                       # The tick when the warmup percentage was hit. (Tick)
system.cpu1.itb_walker_cache.tags.tagAccesses            0                       # Number of tag accesses (Count)
system.cpu1.itb_walker_cache.tags.dataAccesses            0                       # Number of data accesses (Count)
system.cpu1.itb_walker_cache.tags.power_state.pwrStateResidencyTicks::UNDEFINED 512411625500                       # Cumulative time (in ticks) in various power states (Tick)
system.cpu1.mmu.dtb.rdAccesses               35804515                       # TLB accesses on read requests (Count)
system.cpu1.mmu.dtb.wrAccesses               19751216                       # TLB accesses on write requests (Count)
system.cpu1.mmu.dtb.rdMisses                     1999                       # TLB misses on read requests (Count)
system.cpu1.mmu.dtb.wrMisses                     1949                       # TLB misses on write requests (Count)
[...]
system.tol2bus.pktCount_system.cpu05.dcache.mem_side_port::system.l2.cpu_side_port       292260                       # Packet count per connected requestor and responder (Count)
system.tol2bus.pktCount_system.cpu06.icache.mem_side_port::system.l2.cpu_side_port          609                       # Packet count per connected requestor and responder (Count)
system.tol2bus.pktCount_system.cpu06.dcache.mem_side_port::system.l2.cpu_side_port       424000                       # Packet count per connected requestor and responder (Count)
system.tol2bus.pktCount_system.cpu07.icache.mem_side_port::system.l2.cpu_side_port          590                       # Packet count per connected requestor and responder (Count)
system.tol2bus.pktCount_system.cpu07.dcache.mem_side_port::system.l2.cpu_side_port       238459                       # Packet count per connected requestor and responder (Count)
system.tol2bus.pktCount_system.cpu08.icache.mem_side_port::system.l2.cpu_side_port          607                       # Packet count per connected requestor and responder (Count)
system.tol2bus.pktCount_system.cpu08.dcache.mem_side_port::system.l2.cpu_side_port       238483                       # Packet count per connected requestor and responder (Count)
system.tol2bus.pktCount_system.cpu09.icache.mem_side_port::system.l2.cpu_side_port          460                       # Packet count per connected requestor and responder (Count)
system.tol2bus.pktCount_system.cpu09.dcache.mem_side_port::system.l2.cpu_side_port       292736                       # Packet count per connected requestor and responder (Count)
system.tol2bus.pktCount_system.cpu10.icache.mem_side_port::system.l2.cpu_side_port          460                       # Packet count per connected requestor and responder (Count)
system.tol2bus.pktCount_system.cpu10.dcache.mem_side_port::system.l2.cpu_side_port       292262                       # Packet count per connected requestor and responder (Count)
system.tol2bus.pktCount_system.cpu11.icache.mem_side_port::system.l2.cpu_side_port          522                       # Packet count per connected requestor and responder (Count)
system.tol2bus.pktCount_system.cpu11.dcache.mem_side_port::system.l2.cpu_side_port       373470                       # Packet count per connected requestor and responder (Count)
system.tol2bus.pktCount_system.cpu12.icache.mem_side_port::system.l2.cpu_side_port          580                       # Packet count per connected requestor and responder (Count)
system.tol2bus.pktCount_system.cpu12.dcache.mem_side_port::system.l2.cpu_side_port       424676                       # Packet count per connected requestor and responder (Count)
system.tol2bus.pktCount_system.cpu13.icache.mem_side_port::system.l2.cpu_side_port          529                       # Packet count per connected requestor and responder (Count)
system.tol2bus.pktCount_system.cpu13.dcache.mem_side_port::system.l2.cpu_side_port       186172                       # Packet count per connected requestor and responder (Count)
system.tol2bus.pktCount_system.cpu14.icache.mem_side_port::system.l2.cpu_side_port          417                       # Packet count per connected requestor and responder (Count)
system.tol2bus.pktCount_system.cpu14.dcache.mem_side_port::system.l2.cpu_side_port       146958                       # Packet count per connected requestor and responder (Count)
system.tol2bus.pktCount_system.cpu15.icache.mem_side_port::system.l2.cpu_side_port          633                       # Packet count per connected requestor and responder (Count)
system.tol2bus.pktCount_system.cpu15.dcache.mem_side_port::system.l2.cpu_side_port       593172                       # Packet count per connected requestor and responder (Count)
system.tol2bus.pktCount::total                5917909                       # Packet count per connected requestor and responder (Count)
system.tol2bus.pktSize_system.cpu00.icache.mem_side_port::system.l2.cpu_side_port       259200                       # Cumulative packet size per connected requestor and responder (Byte)
system.tol2bus.pktSize_system.cpu00.dcache.mem_side_port::system.l2.cpu_side_port     27059456                       # Cumulative packet size per connected requestor and responder (Byte)
system.tol2bus.pktSize_system.cpu01.icache.mem_side_port::system.l2.cpu_side_port        24704                       # Cumulative packet size per connected requestor and responder (Byte)
system.tol2bus.pktSize_system.cpu01.dcache.mem_side_port::system.l2.cpu_side_port     24107776                       # Cumulative packet size per connected requestor and responder (Byte)
system.tol2bus.pktSize_system.cpu02.icache.mem_side_port::system.l2.cpu_side_port        20672                       # Cumulative packet size per connected requestor and responder (Byte)
system.tol2bus.pktSize_system.cpu02.dcache.mem_side_port::system.l2.cpu_side_port      8219264                       # Cumulative packet size per connected requestor and responder (Byte)
system.tol2bus.pktSize_system.cpu03.icache.mem_side_port::system.l2.cpu_side_port        18112                       # Cumulative packet size per connected requestor and responder (Byte)
system.tol2bus.pktSize_system.cpu03.dcache.mem_side_port::system.l2.cpu_side_port     11993536                       # Cumulative packet size per connected requestor and responder (Byte)
system.tol2bus.pktSize_system.cpu04.icache.mem_side_port::system.l2.cpu_side_port        21312                       # Cumulative packet size per connected requestor and responder (Byte)
system.tol2bus.pktSize_system.cpu04.dcache.mem_side_port::system.l2.cpu_side_port     13382656                       # Cumulative packet size per connected requestor and responder (Byte)
system.tol2bus.pktSize_system.cpu05.icache.mem_side_port::system.l2.cpu_side_port        16256                       # Cumulative packet size per connected requestor and responder (Byte)
system.tol2bus.pktSize_system.cpu05.dcache.mem_side_port::system.l2.cpu_side_port     10469888                       # Cumulative packet size per connected requestor and responder (Byte)
system.tol2bus.pktSize_system.cpu06.icache.mem_side_port::system.l2.cpu_side_port        21760                       # Cumulative packet size per connected requestor and responder (Byte)
system.tol2bus.pktSize_system.cpu06.dcache.mem_side_port::system.l2.cpu_side_port     14193984                       # Cumulative packet size per connected requestor and responder (Byte)
system.tol2bus.pktSize_system.cpu07.icache.mem_side_port::system.l2.cpu_side_port        21056                       # Cumulative packet size per connected requestor and responder (Byte)
system.tol2bus.pktSize_system.cpu07.dcache.mem_side_port::system.l2.cpu_side_port      8195520                       # Cumulative packet size per connected requestor and responder (Byte)
system.tol2bus.pktSize_system.cpu08.icache.mem_side_port::system.l2.cpu_side_port        21760                       # Cumulative packet size per connected requestor and responder (Byte)
system.tol2bus.pktSize_system.cpu08.dcache.mem_side_port::system.l2.cpu_side_port      8208704                       # Cumulative packet size per connected requestor and responder (Byte)
system.tol2bus.pktSize_system.cpu09.icache.mem_side_port::system.l2.cpu_side_port        16256                       # Cumulative packet size per connected requestor and responder (Byte)
system.tol2bus.pktSize_system.cpu09.dcache.mem_side_port::system.l2.cpu_side_port     10476544                       # Cumulative packet size per connected requestor and responder (Byte)
system.tol2bus.pktSize_system.cpu10.icache.mem_side_port::system.l2.cpu_side_port        16256                       # Cumulative packet size per connected requestor and responder (Byte)
system.tol2bus.pktSize_system.cpu10.dcache.mem_side_port::system.l2.cpu_side_port     10454976                       # Cumulative packet size per connected requestor and responder (Byte)
system.tol2bus.pktSize_system.cpu11.icache.mem_side_port::system.l2.cpu_side_port        18496                       # Cumulative packet size per connected requestor and responder (Byte)
system.tol2bus.pktSize_system.cpu11.dcache.mem_side_port::system.l2.cpu_side_port     12003456                       # Cumulative packet size per connected requestor and responder (Byte)
system.tol2bus.pktSize_system.cpu12.icache.mem_side_port::system.l2.cpu_side_port        20608                       # Cumulative packet size per connected requestor and responder (Byte)
system.tol2bus.pktSize_system.cpu12.dcache.mem_side_port::system.l2.cpu_side_port     14288192                       # Cumulative packet size per connected requestor and responder (Byte)
system.tol2bus.pktSize_system.cpu13.icache.mem_side_port::system.l2.cpu_side_port        18816                       # Cumulative packet size per connected requestor and responder (Byte)
system.tol2bus.pktSize_system.cpu13.dcache.mem_side_port::system.l2.cpu_side_port      5999616                       # Cumulative packet size per connected requestor and responder (Byte)
system.tol2bus.pktSize_system.cpu14.icache.mem_side_port::system.l2.cpu_side_port        14400                       # Cumulative packet size per connected requestor and responder (Byte)
system.tol2bus.pktSize_system.cpu14.dcache.mem_side_port::system.l2.cpu_side_port      5256192                       # Cumulative packet size per connected requestor and responder (Byte)
system.tol2bus.pktSize_system.cpu15.icache.mem_side_port::system.l2.cpu_side_port        22720                       # Cumulative packet size per connected requestor and responder (Byte)
system.tol2bus.pktSize_system.cpu15.dcache.mem_side_port::system.l2.cpu_side_port     20105216                       # Cumulative packet size per connected requestor and responder (Byte)
system.tol2bus.pktSize::total               204967360                       # Cumulative packet size per connected requestor and responder (Byte)
system.tol2bus.snoops                         2599018                       # Total snoops (Count)
system.tol2bus.snoopTraffic                  74665792                       # Total snoop traffic (Byte)
system.tol2bus.snoopFanout::samples           4580442                       # Request fanout histogram (Count)
system.tol2bus.snoopFanout::mean             0.300204                       # Request fanout histogram (Count)
system.tol2bus.snoopFanout::stdev            0.637908                       # Request fanout histogram (Count)
system.tol2bus.snoopFanout::underflows              0      0.00%      0.00% # Request fanout histogram (Count)
system.tol2bus.snoopFanout::0                 3340081     72.92%     72.92% # Request fanout histogram (Count)
system.tol2bus.snoopFanout::1                 1191114     26.00%     98.92% # Request fanout histogram (Count)
system.tol2bus.snoopFanout::2                   24112      0.53%     99.45% # Request fanout histogram (Count)
system.tol2bus.snoopFanout::3                    9793      0.21%     99.67% # Request fanout histogram (Count)
system.tol2bus.snoopFanout::4                    6146      0.13%     99.80% # Request fanout histogram (Count)
system.tol2bus.snoopFanout::5                    1830      0.04%     99.84% # Request fanout histogram (Count)
system.tol2bus.snoopFanout::6                     846      0.02%     99.86% # Request fanout histogram (Count)
system.tol2bus.snoopFanout::7                     677      0.01%     99.87% # Request fanout histogram (Count)
system.tol2bus.snoopFanout::8                     713      0.02%     99.89% # Request fanout histogram (Count)
system.tol2bus.snoopFanout::9                     713      0.02%     99.90% # Request fanout histogram (Count)
system.tol2bus.snoopFanout::10                    763      0.02%     99.92% # Request fanout histogram (Count)
system.tol2bus.snoopFanout::11                   2447      0.05%     99.97% # Request fanout histogram (Count)
system.tol2bus.snoopFanout::12                    396      0.01%     99.98% # Request fanout histogram (Count)
system.tol2bus.snoopFanout::13                    294      0.01%     99.99% # Request fanout histogram (Count)
system.tol2bus.snoopFanout::14                    249      0.01%     99.99% # Request fanout histogram (Count)
system.tol2bus.snoopFanout::15                    213      0.00%    100.00% # Request fanout histogram (Count)
system.tol2bus.snoopFanout::16                     55      0.00%    100.00% # Request fanout histogram (Count)
system.tol2bus.snoopFanout::17                      0      0.00%    100.00% # Request fanout histogram (Count)
system.tol2bus.snoopFanout::18                      0      0.00%    100.00% # Request fanout histogram (Count)
system.tol2bus.snoopFanout::19                      0      0.00%    100.00% # Request fanout histogram (Count)
system.tol2bus.snoopFanout::20                      0      0.00%    100.00% # Request fanout histogram (Count)
system.tol2bus.snoopFanout::21                      0      0.00%    100.00% # Request fanout histogram (Count)
system.tol2bus.snoopFanout::22                      0      0.00%    100.00% # Request fanout histogram (Count)
system.tol2bus.snoopFanout::23                      0      0.00%    100.00% # Request fanout histogram (Count)
system.tol2bus.snoopFanout::24                      0      0.00%    100.00% # Request fanout histogram (Count)
system.tol2bus.snoopFanout::25                      0      0.00%    100.00% # Request fanout histogram (Count)
system.tol2bus.snoopFanout::26                      0      0.00%    100.00% # Request fanout histogram (Count)
system.tol2bus.snoopFanout::27                      0      0.00%    100.00% # Request fanout histogram (Count)
system.tol2bus.snoopFanout::28                      0      0.00%    100.00% # Request fanout histogram (Count)
system.tol2bus.snoopFanout::29                      0      0.00%    100.00% # Request fanout histogram (Count)
system.tol2bus.snoopFanout::30                      0      0.00%    100.00% # Request fanout histogram (Count)
system.tol2bus.snoopFanout::31                      0      0.00%    100.00% # Request fanout histogram (Count)
system.tol2bus.snoopFanout::32                      0      0.00%    100.00% # Request fanout histogram (Count)
system.tol2bus.snoopFanout::33                      0      0.00%    100.00% # Request fanout histogram (Count)
system.tol2bus.snoopFanout::34                      0      0.00%    100.00% # Request fanout histogram (Count)
system.tol2bus.snoopFanout::35                      0      0.00%    100.00% # Request fanout histogram (Count)
system.tol2bus.snoopFanout::36                      0      0.00%    100.00% # Request fanout histogram (Count)
system.tol2bus.snoopFanout::37                      0      0.00%    100.00% # Request fanout histogram (Count)
system.tol2bus.snoopFanout::38                      0      0.00%    100.00% # Request fanout histogram (Count)
system.tol2bus.snoopFanout::39                      0      0.00%    100.00% # Request fanout histogram (Count)
system.tol2bus.snoopFanout::40                      0      0.00%    100.00% # Request fanout histogram (Count)
system.tol2bus.snoopFanout::41                      0      0.00%    100.00% # Request fanout histogram (Count)
system.tol2bus.snoopFanout::42                      0      0.00%    100.00% # Request fanout histogram (Count)
system.tol2bus.snoopFanout::43                      0      0.00%    100.00% # Request fanout histogram (Count)
system.tol2bus.snoopFanout::44                      0      0.00%    100.00% # Request fanout histogram (Count)
system.tol2bus.snoopFanout::45                      0      0.00%    100.00% # Request fanout histogram (Count)
system.tol2bus.snoopFanout::46                      0      0.00%    100.00% # Request fanout histogram (Count)
system.tol2bus.snoopFanout::47                      0      0.00%    100.00% # Request fanout histogram (Count)
system.tol2bus.snoopFanout::48                      0      0.00%    100.00% # Request fanout histogram (Count)
system.tol2bus.snoopFanout::49                      0      0.00%    100.00% # Request fanout histogram (Count)
system.tol2bus.snoopFanout::50                      0      0.00%    100.00% # Request fanout histogram (Count)
system.tol2bus.snoopFanout::51                      0      0.00%    100.00% # Request fanout histogram (Count)
system.tol2bus.snoopFanout::52                      0      0.00%    100.00% # Request fanout histogram (Count)
system.tol2bus.snoopFanout::53                      0      0.00%    100.00% # Request fanout histogram (Count)
system.tol2bus.snoopFanout::54                      0      0.00%    100.00% # Request fanout histogram (Count)
system.tol2bus.snoopFanout::55                      0      0.00%    100.00% # Request fanout histogram (Count)
system.tol2bus.snoopFanout::56                      0      0.00%    100.00% # Request fanout histogram (Count)
system.tol2bus.snoopFanout::57                      0      0.00%    100.00% # Request fanout histogram (Count)
system.tol2bus.snoopFanout::58                      0      0.00%    100.00% # Request fanout histogram (Count)
system.tol2bus.snoopFanout::59                      0      0.00%    100.00% # Request fanout histogram (Count)
system.tol2bus.snoopFanout::60                      0      0.00%    100.00% # Request fanout histogram (Count)
system.tol2bus.snoopFanout::61                      0      0.00%    100.00% # Request fanout histogram (Count)
system.tol2bus.snoopFanout::62                      0      0.00%    100.00% # Request fanout histogram (Count)
system.tol2bus.snoopFanout::63                      0      0.00%    100.00% # Request fanout histogram (Count)
system.tol2bus.snoopFanout::64                      0      0.00%    100.00% # Request fanout histogram (Count)
system.tol2bus.snoopFanout::overflows               0      0.00%    100.00% # Request fanout histogram (Count)
system.tol2bus.snoopFanout::min_value               0                       # Request fanout histogram (Count)
system.tol2bus.snoopFanout::max_value              16                       # Request fanout histogram (Count)
system.tol2bus.snoopFanout::total             4580442                       # Request fanout histogram (Count)
system.tol2bus.power_state.pwrStateResidencyTicks::UNDEFINED 512411625500                       # Cumulative time (in ticks) in various power states (Tick)
system.tol2bus.snoop_filter.totRequests       3936485                       # Total number of requests made to the snoop filter. (Count)
system.tol2bus.snoop_filter.hitSingleRequests      1948962                       # Number of requests hitting in the snoop filter with a single holder of the requested data. (Count)
system.tol2bus.snoop_filter.hitMultiRequests        69580                       # Number of requests hitting in the snoop filter with multiple (>1) holders of the requested data. (Count)
system.tol2bus.snoop_filter.totSnoops         1176905                       # Total number of snoops made to the snoop filter. (Count)
system.tol2bus.snoop_filter.hitSingleSnoops      1153482                       # Number of snoops hitting in the snoop filter with a single holder of the requested data. (Count)
system.tol2bus.snoop_filter.hitMultiSnoops        23423                       # Number of snoops hitting in the snoop filter with multiple (>1) holders of the requested data. (Count)
system.voltage_domain.voltage                       1                       # Voltage in Volts (Volt)
system.workload.inst.arm                            0                       # number of arm instructions executed (Count)
system.workload.inst.quiesce                        0                       # number of quiesce instructions executed (Count)

---------- End Simulation Statistics   ----------
