
---------- Begin Simulation Statistics ----------
simSeconds                                   0.764473                       # Number of seconds simulated (Second)
simTicks                                 764473146000                       # Number of ticks simulated (Tick)
finalTick                                764473146000                       # Number of ticks from beginning of simulation (restored from checkpoints and never reset) (Tick)
simFreq                                  1000000000000                       # The number of ticks per simulated second ((Tick/Second))
hostSeconds                                   7307.82                       # Real time elapsed on the host (Second)
hostTickRate                                104610286                       # The number of ticks simulated per host second (ticks/s) ((Tick/Second))
hostMemory                                     890492                       # Number of bytes of host memory used (Byte)
simInsts                                   2560673463                       # Number of instructions simulated (Count)
simOps                                     4019037194                       # Number of ops (including micro ops) simulated (Count)
hostInstRate                                   350402                       # Simulator instruction rate (inst/s) ((Count/Second))
hostOpRate                                     549964                       # Simulator op (including micro ops) rate (op/s) ((Count/Second))
system.clk_domain.clock                          1000                       # Clock period in ticks (Tick)
system.cpu0.numCycles                      1532946734                       # Number of cpu cycles simulated (Cycle)
system.cpu0.cpi                              3.826485                       # CPI: cycles per instruction (core level) ((Cycle/Count))
system.cpu0.ipc                              0.261336                       # IPC: instructions per cycle (core level) ((Count/Cycle))
system.cpu0.numWorkItemsStarted                     0                       # Number of work items this cpu started (Count)
system.cpu0.numWorkItemsCompleted                   0                       # Number of work items this cpu completed (Count)
system.cpu0.commitStats0.numInsts           400614862                       # Number of instructions committed (thread level) (Count)
system.cpu0.commitStats0.numOps             660456160                       # Number of ops (including micro ops) committed (thread level) (Count)
system.cpu0.commitStats0.numInstsNotNOP             0                       # Number of instructions committed excluding NOPs or prefetches (Count)
system.cpu0.commitStats0.numOpsNotNOP               0                       # Number of Ops (including micro ops) Simulated (Count)
system.cpu0.commitStats0.cpi                 3.826485                       # CPI: cycles per instruction (thread level) ((Cycle/Count))
system.cpu0.commitStats0.ipc                 0.261336                       # IPC: instructions per cycle (thread level) ((Count/Cycle))
system.cpu0.commitStats0.numMemRefs                 0                       # Number of memory references committed (Count)
system.cpu0.commitStats0.numFpInsts           8874007                       # Number of float instructions (Count)
system.cpu0.commitStats0.numIntInsts        633926935                       # Number of integer instructions (Count)
system.cpu0.commitStats0.numLoadInsts       143737414                       # Number of load instructions (Count)
system.cpu0.commitStats0.numStoreInsts       87141133                       # Number of store instructions (Count)
system.cpu0.commitStats0.numVecInsts                0                       # Number of vector instructions (Count)
system.cpu0.commitStats0.committedInstType::No_OpClass     17845910      2.70%      2.70% # Class of committed instruction. (Count)
system.cpu0.commitStats0.committedInstType::IntAlu    405725957     61.43%     64.13% # Class of committed instruction. (Count)
system.cpu0.commitStats0.committedInstType::IntMult      2000161      0.30%     64.44% # Class of committed instruction. (Count)
system.cpu0.commitStats0.committedInstType::IntDiv           77      0.00%     64.44% # Class of committed instruction. (Count)
system.cpu0.commitStats0.committedInstType::FloatAdd      2001681      0.30%     64.74% # Class of committed instruction. (Count)
system.cpu0.commitStats0.committedInstType::FloatCmp            0      0.00%     64.74% # Class of committed instruction. (Count)
system.cpu0.commitStats0.committedInstType::FloatCvt            0      0.00%     64.74% # Class of committed instruction. (Count)
system.cpu0.commitStats0.committedInstType::FloatMult            0      0.00%     64.74% # Class of committed instruction. (Count)
system.cpu0.commitStats0.committedInstType::FloatMultAcc            0      0.00%     64.74% # Class of committed instruction. (Count)
system.cpu0.commitStats0.committedInstType::FloatDiv            0      0.00%     64.74% # Class of committed instruction. (Count)
system.cpu0.commitStats0.committedInstType::FloatMisc            0      0.00%     64.74% # Class of committed instruction. (Count)
system.cpu0.commitStats0.committedInstType::FloatSqrt            0      0.00%     64.74% # Class of committed instruction. (Count)
system.cpu0.commitStats0.committedInstType::SimdAdd           26      0.00%     64.74% # Class of committed instruction. (Count)
system.cpu0.commitStats0.committedInstType::SimdAddAcc            0      0.00%     64.74% # Class of committed instruction. (Count)
system.cpu0.commitStats0.committedInstType::SimdAlu          978      0.00%     64.74% # Class of committed instruction. (Count)
system.cpu0.commitStats0.committedInstType::SimdCmp            6      0.00%     64.74% # Class of committed instruction. (Count)
system.cpu0.commitStats0.committedInstType::SimdCvt          446      0.00%     64.74% # Class of committed instruction. (Count)
system.cpu0.commitStats0.committedInstType::SimdMisc      2002360      0.30%     65.04% # Class of committed instruction. (Count)
system.cpu0.commitStats0.committedInstType::SimdMult            0      0.00%     65.04% # Class of committed instruction. (Count)
system.cpu0.commitStats0.committedInstType::SimdMultAcc            0      0.00%     65.04% # Class of committed instruction. (Count)
system.cpu0.commitStats0.committedInstType::SimdMatMultAcc            0      0.00%     65.04% # Class of committed instruction. (Count)
system.cpu0.commitStats0.committedInstType::SimdShift            0      0.00%     65.04% # Class of committed instruction. (Count)
system.cpu0.commitStats0.committedInstType::SimdShiftAcc            0      0.00%     65.04% # Class of committed instruction. (Count)
system.cpu0.commitStats0.committedInstType::SimdDiv            0      0.00%     65.04% # Class of committed instruction. (Count)
system.cpu0.commitStats0.committedInstType::SimdSqrt            0      0.00%     65.04% # Class of committed instruction. (Count)
system.cpu0.commitStats0.committedInstType::SimdFloatAdd            3      0.00%     65.04% # Class of committed instruction. (Count)
system.cpu0.commitStats0.committedInstType::SimdFloatAlu            0      0.00%     65.04% # Class of committed instruction. (Count)
system.cpu0.commitStats0.committedInstType::SimdFloatCmp            0      0.00%     65.04% # Class of committed instruction. (Count)
system.cpu0.commitStats0.committedInstType::SimdFloatCvt            6      0.00%     65.04% # Class of committed instruction. (Count)
system.cpu0.commitStats0.committedInstType::SimdFloatDiv            2      0.00%     65.04% # Class of committed instruction. (Count)
system.cpu0.commitStats0.committedInstType::SimdFloatMisc            0      0.00%     65.04% # Class of committed instruction. (Count)
system.cpu0.commitStats0.committedInstType::SimdFloatMult            0      0.00%     65.04% # Class of committed instruction. (Count)
system.cpu0.commitStats0.committedInstType::SimdFloatMultAcc            0      0.00%     65.04% # Class of committed instruction. (Count)
system.cpu0.commitStats0.committedInstType::SimdFloatMatMultAcc            0      0.00%     65.04% # Class of committed instruction. (Count)
system.cpu0.commitStats0.committedInstType::SimdFloatSqrt            0      0.00%     65.04% # Class of committed instruction. (Count)
system.cpu0.commitStats0.committedInstType::SimdReduceAdd            0      0.00%     65.04% # Class of committed instruction. (Count)
system.cpu0.commitStats0.committedInstType::SimdReduceAlu            0      0.00%     65.04% # Class of committed instruction. (Count)
system.cpu0.commitStats0.committedInstType::SimdReduceCmp            0      0.00%     65.04% # Class of committed instruction. (Count)
system.cpu0.commitStats0.committedInstType::SimdFloatReduceAdd            0      0.00%     65.04% # Class of committed instruction. (Count)
system.cpu0.commitStats0.committedInstType::SimdFloatReduceCmp            0      0.00%     65.04% # Class of committed instruction. (Count)
system.cpu0.commitStats0.committedInstType::SimdAes            0      0.00%     65.04% # Class of committed instruction. (Count)
system.cpu0.commitStats0.committedInstType::SimdAesMix            0      0.00%     65.04% # Class of committed instruction. (Count)
system.cpu0.commitStats0.committedInstType::SimdSha1Hash            0      0.00%     65.04% # Class of committed instruction. (Count)
system.cpu0.commitStats0.committedInstType::SimdSha1Hash2            0      0.00%     65.04% # Class of committed instruction. (Count)
system.cpu0.commitStats0.committedInstType::SimdSha256Hash            0      0.00%     65.04% # Class of committed instruction. (Count)
system.cpu0.commitStats0.committedInstType::SimdSha256Hash2            0      0.00%     65.04% # Class of committed instruction. (Count)
system.cpu0.commitStats0.committedInstType::SimdShaSigma2            0      0.00%     65.04% # Class of committed instruction. (Count)
system.cpu0.commitStats0.committedInstType::SimdShaSigma3            0      0.00%     65.04% # Class of committed instruction. (Count)
system.cpu0.commitStats0.committedInstType::SimdPredAlu            0      0.00%     65.04% # Class of committed instruction. (Count)
system.cpu0.commitStats0.committedInstType::Matrix            0      0.00%     65.04% # Class of committed instruction. (Count)
system.cpu0.commitStats0.committedInstType::MatrixMov            0      0.00%     65.04% # Class of committed instruction. (Count)
system.cpu0.commitStats0.committedInstType::MatrixOP            0      0.00%     65.04% # Class of committed instruction. (Count)
system.cpu0.commitStats0.committedInstType::MemRead    142804291     21.62%     86.66% # Class of committed instruction. (Count)
system.cpu0.commitStats0.committedInstType::MemWrite     84206797     12.75%     99.41% # Class of committed instruction. (Count)
system.cpu0.commitStats0.committedInstType::FloatMemRead       933123      0.14%     99.56% # Class of committed instruction. (Count)
system.cpu0.commitStats0.committedInstType::FloatMemWrite      2934336      0.44%    100.00% # Class of committed instruction. (Count)
system.cpu0.commitStats0.committedInstType::IprAccess            0      0.00%    100.00% # Class of committed instruction. (Count)
system.cpu0.commitStats0.committedInstType::InstPrefetch            0      0.00%    100.00% # Class of committed instruction. (Count)
system.cpu0.commitStats0.committedInstType::SimdUnitStrideLoad            0      0.00%    100.00% # Class of committed instruction. (Count)
system.cpu0.commitStats0.committedInstType::SimdUnitStrideStore            0      0.00%    100.00% # Class of committed instruction. (Count)
system.cpu0.commitStats0.committedInstType::SimdUnitStrideMaskLoad            0      0.00%    100.00% # Class of committed instruction. (Count)
system.cpu0.commitStats0.committedInstType::SimdUnitStrideMaskStore            0      0.00%    100.00% # Class of committed instruction. (Count)
system.cpu0.commitStats0.committedInstType::SimdStridedLoad            0      0.00%    100.00% # Class of committed instruction. (Count)
system.cpu0.commitStats0.committedInstType::SimdStridedStore            0      0.00%    100.00% # Class of committed instruction. (Count)
system.cpu0.commitStats0.committedInstType::SimdIndexedLoad            0      0.00%    100.00% # Class of committed instruction. (Count)
system.cpu0.commitStats0.committedInstType::SimdIndexedStore            0      0.00%    100.00% # Class of committed instruction. (Count)
system.cpu0.commitStats0.committedInstType::SimdWholeRegisterLoad            0      0.00%    100.00% # Class of committed instruction. (Count)
system.cpu0.commitStats0.committedInstType::SimdWholeRegisterStore            0      0.00%    100.00% # Class of committed instruction. (Count)
system.cpu0.commitStats0.committedInstType::SimdUnitStrideFaultOnlyFirstLoad            0      0.00%    100.00% # Class of committed instruction. (Count)
system.cpu0.commitStats0.committedInstType::SimdUnitStrideSegmentedLoad            0      0.00%    100.00% # Class of committed instruction. (Count)
system.cpu0.commitStats0.committedInstType::SimdUnitStrideSegmentedStore            0      0.00%    100.00% # Class of committed instruction. (Count)
system.cpu0.commitStats0.committedInstType::SimdUnitStrideSegmentedFaultOnlyFirstLoad            0      0.00%    100.00% # Class of committed instruction. (Count)
system.cpu0.commitStats0.committedInstType::SimdStrideSegmentedLoad            0      0.00%    100.00% # Class of committed instruction. (Count)
system.cpu0.commitStats0.committedInstType::SimdStrideSegmentedStore            0      0.00%    100.00% # Class of committed instruction. (Count)
system.cpu0.commitStats0.committedInstType::SimdExt            0      0.00%    100.00% # Class of committed instruction. (Count)
system.cpu0.commitStats0.committedInstType::SimdFloatExt            0      0.00%    100.00% # Class of committed instruction. (Count)
system.cpu0.commitStats0.committedInstType::SimdConfig            0      0.00%    100.00% # Class of committed instruction. (Count)
system.cpu0.commitStats0.committedInstType::total    660456160                       # Class of committed instruction. (Count)
system.cpu0.commitStats0.committedControl::IsControl     58830615                       # Class of control type instructions committed (Count)
system.cpu0.commitStats0.committedControl::IsDirectControl     40922100                       # Class of control type instructions committed (Count)
system.cpu0.commitStats0.committedControl::IsIndirectControl     17908515                       # Class of control type instructions committed (Count)
system.cpu0.commitStats0.committedControl::IsCondControl     20894176                       # Class of control type instructions committed (Count)
system.cpu0.commitStats0.committedControl::IsUncondControl     37936439                       # Class of control type instructions committed (Count)
system.cpu0.commitStats0.committedControl::IsCall     17657955                       # Class of control type instructions committed (Count)
system.cpu0.commitStats0.committedControl::IsReturn     17657950                       # Class of control type instructions committed (Count)
system.cpu0.dcache.demandHits::cpu0.data    226309600                       # number of demand (read+write) hits (Count)
system.cpu0.dcache.demandHits::total        226309600                       # number of demand (read+write) hits (Count)
system.cpu0.dcache.overallHits::cpu0.data    226310345                       # number of overall hits (Count)
system.cpu0.dcache.overallHits::total       226310345                       # number of overall hits (Count)
system.cpu0.dcache.demandMisses::cpu0.data       507856                       # number of demand (read+write) misses (Count)
system.cpu0.dcache.demandMisses::total         507856                       # number of demand (read+write) misses (Count)
system.cpu0.dcache.overallMisses::cpu0.data       538351                       # number of overall misses (Count)
system.cpu0.dcache.overallMisses::total        538351                       # number of overall misses (Count)
system.cpu0.dcache.demandAccesses::cpu0.data    226817456                       # number of demand (read+write) accesses (Count)
system.cpu0.dcache.demandAccesses::total    226817456                       # number of demand (read+write) accesses (Count)
system.cpu0.dcache.overallAccesses::cpu0.data    226848696                       # number of overall (read+write) accesses (Count)
system.cpu0.dcache.overallAccesses::total    226848696                       # number of overall (read+write) accesses (Count)
system.cpu0.dcache.demandMissRate::cpu0.data     0.002239                       # miss rate for demand accesses (Ratio)
system.cpu0.dcache.demandMissRate::total     0.002239                       # miss rate for demand accesses (Ratio)
system.cpu0.dcache.overallMissRate::cpu0.data     0.002373                       # miss rate for overall accesses (Ratio)
system.cpu0.dcache.overallMissRate::total     0.002373                       # miss rate for overall accesses (Ratio)
system.cpu0.dcache.blockedCycles::no_mshrs            0                       # number of cycles access was blocked (Cycle)
system.cpu0.dcache.blockedCycles::no_targets            0                       # number of cycles access was blocked (Cycle)
system.cpu0.dcache.blockedCauses::no_mshrs            0                       # number of times access was blocked (Count)
system.cpu0.dcache.blockedCauses::no_targets            0                       # number of times access was blocked (Count)
system.cpu0.dcache.avgBlocked::no_mshrs           nan                       # average number of cycles each access was blocked ((Cycle/Count))
system.cpu0.dcache.avgBlocked::no_targets          nan                       # average number of cycles each access was blocked ((Cycle/Count))
system.cpu0.dcache.writebacks::writebacks       433450                       # number of writebacks (Count)
system.cpu0.dcache.writebacks::total           433450                       # number of writebacks (Count)
system.cpu0.dcache.replacements                538004                       # number of replacements (Count)
system.cpu0.dcache.LockedRMWReadReq.hits::cpu0.data      1999191                       # number of LockedRMWReadReq hits (Count)
system.cpu0.dcache.LockedRMWReadReq.hits::total      1999191                       # number of LockedRMWReadReq hits (Count)
system.cpu0.dcache.LockedRMWReadReq.misses::cpu0.data         1017                       # number of LockedRMWReadReq misses (Count)
system.cpu0.dcache.LockedRMWReadReq.misses::total         1017                       # number of LockedRMWReadReq misses (Count)
system.cpu0.dcache.LockedRMWReadReq.accesses::cpu0.data      2000208                       # number of LockedRMWReadReq accesses(hits+misses) (Count)
system.cpu0.dcache.LockedRMWReadReq.accesses::total      2000208                       # number of LockedRMWReadReq accesses(hits+misses) (Count)
system.cpu0.dcache.LockedRMWReadReq.missRate::cpu0.data     0.000508                       # miss rate for LockedRMWReadReq accesses (Ratio)
system.cpu0.dcache.LockedRMWReadReq.missRate::total     0.000508                       # miss rate for LockedRMWReadReq accesses (Ratio)
system.cpu0.dcache.LockedRMWWriteReq.hits::cpu0.data      2000208                       # number of LockedRMWWriteReq hits (Count)
system.cpu0.dcache.LockedRMWWriteReq.hits::total      2000208                       # number of LockedRMWWriteReq hits (Count)
system.cpu0.dcache.LockedRMWWriteReq.accesses::cpu0.data      2000208                       # number of LockedRMWWriteReq accesses(hits+misses) (Count)
system.cpu0.dcache.LockedRMWWriteReq.accesses::total      2000208                       # number of LockedRMWWriteReq accesses(hits+misses) (Count)
system.cpu0.dcache.ReadReq.hits::cpu0.data    141546364                       # number of ReadReq hits (Count)
system.cpu0.dcache.ReadReq.hits::total      141546364                       # number of ReadReq hits (Count)
system.cpu0.dcache.ReadReq.misses::cpu0.data       177126                       # number of ReadReq misses (Count)
system.cpu0.dcache.ReadReq.misses::total       177126                       # number of ReadReq misses (Count)
system.cpu0.dcache.ReadReq.accesses::cpu0.data    141723490                       # number of ReadReq accesses(hits+misses) (Count)
system.cpu0.dcache.ReadReq.accesses::total    141723490                       # number of ReadReq accesses(hits+misses) (Count)
system.cpu0.dcache.ReadReq.missRate::cpu0.data     0.001250                       # miss rate for ReadReq accesses (Ratio)
system.cpu0.dcache.ReadReq.missRate::total     0.001250                       # miss rate for ReadReq accesses (Ratio)
system.cpu0.dcache.SoftPFReq.hits::cpu0.data          745                       # number of SoftPFReq hits (Count)
system.cpu0.dcache.SoftPFReq.hits::total          745                       # number of SoftPFReq hits (Count)
system.cpu0.dcache.SoftPFReq.misses::cpu0.data        30495                       # number of SoftPFReq misses (Count)
system.cpu0.dcache.SoftPFReq.misses::total        30495                       # number of SoftPFReq misses (Count)
system.cpu0.dcache.SoftPFReq.accesses::cpu0.data        31240                       # number of SoftPFReq accesses(hits+misses) (Count)
system.cpu0.dcache.SoftPFReq.accesses::total        31240                       # number of SoftPFReq accesses(hits+misses) (Count)
system.cpu0.dcache.SoftPFReq.missRate::cpu0.data     0.976152                       # miss rate for SoftPFReq accesses (Ratio)
system.cpu0.dcache.SoftPFReq.missRate::total     0.976152                       # miss rate for SoftPFReq accesses (Ratio)
system.cpu0.dcache.WriteReq.hits::cpu0.data     84763236                       # number of WriteReq hits (Count)
system.cpu0.dcache.WriteReq.hits::total      84763236                       # number of WriteReq hits (Count)
system.cpu0.dcache.WriteReq.misses::cpu0.data       330730                       # number of WriteReq misses (Count)
system.cpu0.dcache.WriteReq.misses::total       330730                       # number of WriteReq misses (Count)
system.cpu0.dcache.WriteReq.accesses::cpu0.data     85093966                       # number of WriteReq accesses(hits+misses) (Count)
system.cpu0.dcache.WriteReq.accesses::total     85093966                       # number of WriteReq accesses(hits+misses) (Count)
system.cpu0.dcache.WriteReq.missRate::cpu0.data     0.003887                       # miss rate for WriteReq accesses (Ratio)
system.cpu0.dcache.WriteReq.missRate::total     0.003887                       # miss rate for WriteReq accesses (Ratio)
system.cpu0.dcache.power_state.pwrStateResidencyTicks::UNDEFINED 764473146000                       # Cumulative time (in ticks) in various power states (Tick)
system.cpu0.dcache.tags.tagsInUse          889.974458                       # Average ticks per tags in use ((Tick/Count))
system.cpu0.dcache.tags.totalRefs           230849112                       # Total number of references to valid blocks. (Count)
system.cpu0.dcache.tags.sampledRefs            539322                       # Sample count of references to valid blocks. (Count)
system.cpu0.dcache.tags.avgRefs            428.035778                       # Average number of references to valid blocks. ((Count/Count))
system.cpu0.dcache.tags.warmupTick               2000                       # The tick when the warmup percentage was hit. (Tick)
system.cpu0.dcache.tags.occupancies::cpu0.data   889.974458                       # Average occupied blocks per tick, per requestor ((Count/Tick))
system.cpu0.dcache.tags.avgOccs::cpu0.data     0.869116                       # Average percentage of cache occupancy ((Ratio/Tick))
system.cpu0.dcache.tags.avgOccs::total       0.869116                       # Average percentage of cache occupancy ((Ratio/Tick))
system.cpu0.dcache.tags.occupanciesTaskId::1024          181                       # Occupied blocks per task id (Count)
system.cpu0.dcache.tags.ageTaskId_1024::0          154                       # Occupied blocks per task id, per block age (Count)
system.cpu0.dcache.tags.ageTaskId_1024::4           27                       # Occupied blocks per task id, per block age (Count)
system.cpu0.dcache.tags.ratioOccsTaskId::1024     0.176758                       # Ratio of occupied blocks and all blocks, per task id (Ratio)
system.cpu0.dcache.tags.tagAccesses         231388434                       # Number of tag accesses (Count)
system.cpu0.dcache.tags.dataAccesses        231388434                       # Number of data accesses (Count)
system.cpu0.dcache.tags.power_state.pwrStateResidencyTicks::UNDEFINED 764473146000                       # Cumulative time (in ticks) in various power states (Tick)
system.cpu0.dtb_walker_cache.blockedCycles::no_mshrs            0                       # number of cycles access was blocked (Cycle)
system.cpu0.dtb_walker_cache.blockedCycles::no_targets            0                       # number of cycles access was blocked (Cycle)
system.cpu0.dtb_walker_cache.blockedCauses::no_mshrs            0                       # number of times access was blocked (Count)
system.cpu0.dtb_walker_cache.blockedCauses::no_targets            0                       # number of times access was blocked (Count)
system.cpu0.dtb_walker_cache.avgBlocked::no_mshrs          nan                       # average number of cycles each access was blocked ((Cycle/Count))
system.cpu0.dtb_walker_cache.avgBlocked::no_targets          nan                       # average number of cycles each access was blocked ((Cycle/Count))
system.cpu0.dtb_walker_cache.replacements            0                       # number of replacements (Count)
system.cpu0.dtb_walker_cache.power_state.pwrStateResidencyTicks::UNDEFINED 764473146000                       # Cumulative time (in ticks) in various power states (Tick)
system.cpu0.dtb_walker_cache.tags.tagsInUse            0                       # Average ticks per tags in use ((Tick/Count))
system.cpu0.dtb_walker_cache.tags.totalRefs            0                       # Total number of references to valid blocks. (Count)
system.cpu0.dtb_walker_cache.tags.sampledRefs            0                       # Sample count of references to valid blocks. (Count)
system.cpu0.dtb_walker_cache.tags.avgRefs          nan                       # Average number of references to valid blocks. ((Count/Count))
system.cpu0.dtb_walker_cache.tags.warmupTick            0                       # The tick when the warmup percentage was hit. (Tick)
system.cpu0.dtb_walker_cache.tags.tagAccesses            0                       # Number of tag accesses (Count)
system.cpu0.dtb_walker_cache.tags.dataAccesses            0                       # Number of data accesses (Count)
system.cpu0.dtb_walker_cache.tags.power_state.pwrStateResidencyTicks::UNDEFINED 764473146000                       # Cumulative time (in ticks) in various power states (Tick)
system.cpu0.exec_context.thread_0.numMatAluAccesses            0                       # Number of matrix alu accesses (Count)
system.cpu0.exec_context.thread_0.numCallsReturns     35315905                       # Number of times a function call or return occured (Count)
system.cpu0.exec_context.thread_0.numMatInsts            0                       # Number of matrix instructions (Count)
system.cpu0.exec_context.thread_0.numIdleCycles 751454284.574492                       # Number of idle cycles (Cycle)
system.cpu0.exec_context.thread_0.numBusyCycles 781492449.425508                       # Number of busy cycles (Cycle)
system.cpu0.exec_context.thread_0.notIdleFraction     0.509798                       # Percentage of non-idle cycles (Ratio)
system.cpu0.exec_context.thread_0.idleFraction     0.490202                       # Percentage of idle cycles (Ratio)
system.cpu0.executeStats0.numInsts                  0                       # Number of executed instructions (Count)
system.cpu0.executeStats0.numNop                    0                       # Number of nop insts executed (Count)
system.cpu0.executeStats0.numBranches               0                       # Number of branches executed (Count)
system.cpu0.executeStats0.numLoadInsts              0                       # Number of load instructions executed (Count)
system.cpu0.executeStats0.numStoreInsts     230878547                       # Number of stores executed (Count)
system.cpu0.executeStats0.instRate                  0                       # Inst execution rate ((Count/Cycle))
system.cpu0.executeStats0.numFpAluAccesses      8874007                       # Number of float alu accesses (Count)
system.cpu0.executeStats0.numFpRegReads       6942725                       # Number of times the floating registers were read (Count)
system.cpu0.executeStats0.numFpRegWrites      5939253                       # Number of times the floating registers were written (Count)
system.cpu0.executeStats0.numIntAluAccesses    633926935                       # Number of integer alu accesses (Count)
system.cpu0.executeStats0.numIntRegReads    751239830                       # Number of times the integer registers were read (Count)
system.cpu0.executeStats0.numIntRegWrites    464196968                       # Number of times the integer registers were written (Count)
system.cpu0.executeStats0.numMemRefs        230878547                       # Number of memory refs (Count)
system.cpu0.executeStats0.numMiscRegReads    333895709                       # Number of times the Misc registers were read (Count)
system.cpu0.executeStats0.numVecAluAccesses            0                       # Number of vector alu accesses (Count)
system.cpu0.executeStats0.numDiscardedOps            0                       # Number of ops (including micro ops) which were discarded before commit (Count)
system.cpu0.fetchStats0.numInsts            400614862                       # Number of instructions fetched (thread level) (Count)
system.cpu0.fetchStats0.numOps              660456160                       # Number of ops (including micro ops) fetched (thread level) (Count)
system.cpu0.fetchStats0.fetchRate            0.261336                       # Number of inst fetches per cycle ((Count/Cycle))
system.cpu0.fetchStats0.numBranches          58830615                       # Number of branches fetched (Count)
system.cpu0.fetchStats0.branchRate           0.038377                       # Number of branch fetches per cycle (Ratio)
system.cpu0.fetchStats0.numFetchSuspends            0                       # Number of times Execute suspended instruction fetching (Count)
system.cpu0.icache.demandHits::cpu0.inst    523672617                       # number of demand (read+write) hits (Count)
system.cpu0.icache.demandHits::total        523672617                       # number of demand (read+write) hits (Count)
system.cpu0.icache.overallHits::cpu0.inst    523672617                       # number of overall hits (Count)
system.cpu0.icache.overallHits::total       523672617                       # number of overall hits (Count)
system.cpu0.icache.demandMisses::cpu0.inst         2059                       # number of demand (read+write) misses (Count)
system.cpu0.icache.demandMisses::total           2059                       # number of demand (read+write) misses (Count)
system.cpu0.icache.overallMisses::cpu0.inst         2059                       # number of overall misses (Count)
system.cpu0.icache.overallMisses::total          2059                       # number of overall misses (Count)
system.cpu0.icache.demandAccesses::cpu0.inst    523674676                       # number of demand (read+write) accesses (Count)
system.cpu0.icache.demandAccesses::total    523674676                       # number of demand (read+write) accesses (Count)
system.cpu0.icache.overallAccesses::cpu0.inst    523674676                       # number of overall (read+write) accesses (Count)
system.cpu0.icache.overallAccesses::total    523674676                       # number of overall (read+write) accesses (Count)
system.cpu0.icache.demandMissRate::cpu0.inst     0.000004                       # miss rate for demand accesses (Ratio)
system.cpu0.icache.demandMissRate::total     0.000004                       # miss rate for demand accesses (Ratio)
system.cpu0.icache.overallMissRate::cpu0.inst     0.000004                       # miss rate for overall accesses (Ratio)
system.cpu0.icache.overallMissRate::total     0.000004                       # miss rate for overall accesses (Ratio)
system.cpu0.icache.blockedCycles::no_mshrs            0                       # number of cycles access was blocked (Cycle)
system.cpu0.icache.blockedCycles::no_targets            0                       # number of cycles access was blocked (Cycle)
system.cpu0.icache.blockedCauses::no_mshrs            0                       # number of times access was blocked (Count)
system.cpu0.icache.blockedCauses::no_targets            0                       # number of times access was blocked (Count)
system.cpu0.icache.avgBlocked::no_mshrs           nan                       # average number of cycles each access was blocked ((Cycle/Count))
system.cpu0.icache.avgBlocked::no_targets          nan                       # average number of cycles each access was blocked ((Cycle/Count))
system.cpu0.icache.writebacks::writebacks         1803                       # number of writebacks (Count)
system.cpu0.icache.writebacks::total             1803                       # number of writebacks (Count)
system.cpu0.icache.replacements                  1803                       # number of replacements (Count)
system.cpu0.icache.ReadReq.hits::cpu0.inst    523672617                       # number of ReadReq hits (Count)
system.cpu0.icache.ReadReq.hits::total      523672617                       # number of ReadReq hits (Count)
system.cpu0.icache.ReadReq.misses::cpu0.inst         2059                       # number of ReadReq misses (Count)
system.cpu0.icache.ReadReq.misses::total         2059                       # number of ReadReq misses (Count)
system.cpu0.icache.ReadReq.accesses::cpu0.inst    523674676                       # number of ReadReq accesses(hits+misses) (Count)
system.cpu0.icache.ReadReq.accesses::total    523674676                       # number of ReadReq accesses(hits+misses) (Count)
system.cpu0.icache.ReadReq.missRate::cpu0.inst     0.000004                       # miss rate for ReadReq accesses (Ratio)
system.cpu0.icache.ReadReq.missRate::total     0.000004                       # miss rate for ReadReq accesses (Ratio)
system.cpu0.icache.power_state.pwrStateResidencyTicks::UNDEFINED 764473146000                       # Cumulative time (in ticks) in various power states (Tick)
system.cpu0.icache.tags.tagsInUse          255.998558                       # Average ticks per tags in use ((Tick/Count))
system.cpu0.icache.tags.totalRefs           523674676                       # Total number of references to valid blocks. (Count)
system.cpu0.icache.tags.sampledRefs              2059                       # Sample count of references to valid blocks. (Count)
system.cpu0.icache.tags.avgRefs          254334.471102                       # Average number of references to valid blocks. ((Count/Count))
system.cpu0.icache.tags.warmupTick                  0                       # The tick when the warmup percentage was hit. (Tick)
system.cpu0.icache.tags.occupancies::cpu0.inst   255.998558                       # Average occupied blocks per tick, per requestor ((Count/Tick))
system.cpu0.icache.tags.avgOccs::cpu0.inst     0.999994                       # Average percentage of cache occupancy ((Ratio/Tick))
system.cpu0.icache.tags.avgOccs::total       0.999994                       # Average percentage of cache occupancy ((Ratio/Tick))
system.cpu0.icache.tags.occupanciesTaskId::1024          256                       # Occupied blocks per task id (Count)
system.cpu0.icache.tags.ageTaskId_1024::0          229                       # Occupied blocks per task id, per block age (Count)
system.cpu0.icache.tags.ageTaskId_1024::4           27                       # Occupied blocks per task id, per block age (Count)
system.cpu0.icache.tags.ratioOccsTaskId::1024            1                       # Ratio of occupied blocks and all blocks, per task id (Ratio)
system.cpu0.icache.tags.tagAccesses        1047351411                       # Number of tag accesses (Count)
system.cpu0.icache.tags.dataAccesses       1047351411                       # Number of data accesses (Count)
system.cpu0.icache.tags.power_state.pwrStateResidencyTicks::UNDEFINED 764473146000                       # Cumulative time (in ticks) in various power states (Tick)
system.cpu0.interrupts.clk_domain.clock          8000                       # Clock period in ticks (Tick)
system.cpu0.itb_walker_cache.blockedCycles::no_mshrs            0                       # number of cycles access was blocked (Cycle)
system.cpu0.itb_walker_cache.blockedCycles::no_targets            0                       # number of cycles access was blocked (Cycle)
system.cpu0.itb_walker_cache.blockedCauses::no_mshrs            0                       # number of times access was blocked (Count)
system.cpu0.itb_walker_cache.blockedCauses::no_targets            0                       # number of times access was blocked (Count)
system.cpu0.itb_walker_cache.avgBlocked::no_mshrs          nan                       # average number of cycles each access was blocked ((Cycle/Count))
system.cpu0.itb_walker_cache.avgBlocked::no_targets          nan                       # average number of cycles each access was blocked ((Cycle/Count))
system.cpu0.itb_walker_cache.replacements            0                       # number of replacements (Count)
system.cpu0.itb_walker_cache.power_state.pwrStateResidencyTicks::UNDEFINED 764473146000                       # Cumulative time (in ticks) in various power states (Tick)
system.cpu0.itb_walker_cache.tags.tagsInUse            0                       # Average ticks per tags in use ((Tick/Count))
system.cpu0.itb_walker_cache.tags.totalRefs            0                       # Total number of references to valid blocks. (Count)
system.cpu0.itb_walker_cache.tags.sampledRefs            0                       # Sample count of references to valid blocks. (Count)
system.cpu0.itb_walker_cache.tags.avgRefs          nan                       # Average number of references to valid blocks. ((Count/Count))
system.cpu0.itb_walker_cache.tags.warmupTick            0                       # The tick when the warmup percentage was hit. (Tick)
system.cpu0.itb_walker_cache.tags.tagAccesses            0                       # Number of tag accesses (Count)
system.cpu0.itb_walker_cache.tags.dataAccesses            0                       # Number of data accesses (Count)
system.cpu0.itb_walker_cache.tags.power_state.pwrStateResidencyTicks::UNDEFINED 764473146000                       # Cumulative time (in ticks) in various power states (Tick)
system.cpu0.mmu.dtb.rdAccesses              143754939                       # TLB accesses on read requests (Count)
system.cpu0.mmu.dtb.wrAccesses               87158635                       # TLB accesses on write requests (Count)
system.cpu0.mmu.dtb.rdMisses                     1189                       # TLB misses on read requests (Count)
system.cpu0.mmu.dtb.wrMisses                     5997                       # TLB misses on write requests (Count)
system.cpu0.mmu.dtb.walker.power_state.pwrStateResidencyTicks::UNDEFINED 764473146000                       # Cumulative time (in ticks) in various power states (Tick)
system.cpu0.mmu.itb.rdAccesses                      0                       # TLB accesses on read requests (Count)
system.cpu0.mmu.itb.wrAccesses              523674676                       # TLB accesses on write requests (Count)
system.cpu0.mmu.itb.rdMisses                        0                       # TLB misses on read requests (Count)
system.cpu0.mmu.itb.wrMisses                      273                       # TLB misses on write requests (Count)
system.cpu0.mmu.itb.walker.power_state.pwrStateResidencyTicks::UNDEFINED 764473146000                       # Cumulative time (in ticks) in various power states (Tick)
system.cpu0.power_state.numTransitions              2                       # Number of power state transitions (Count)
system.cpu0.power_state.ticksClkGated::samples            1                       # Distribution of time spent in the clock gated state (Tick)
system.cpu0.power_state.ticksClkGated::mean 374746629000                       # Distribution of time spent in the clock gated state (Tick)
system.cpu0.power_state.ticksClkGated::3.5e+11-4e+11            1    100.00%    100.00% # Distribution of time spent in the clock gated state (Tick)
system.cpu0.power_state.ticksClkGated::min_value 374746629000                       # Distribution of time spent in the clock gated state (Tick)
system.cpu0.power_state.ticksClkGated::max_value 374746629000                       # Distribution of time spent in the clock gated state (Tick)
system.cpu0.power_state.ticksClkGated::total            1                       # Distribution of time spent in the clock gated state (Tick)
system.cpu0.power_state.pwrStateResidencyTicks::ON 389726517000                       # Cumulative time (in ticks) in various power states (Tick)
system.cpu0.power_state.pwrStateResidencyTicks::CLK_GATED 374746629000                       # Cumulative time (in ticks) in various power states (Tick)
system.cpu0.thread_0.numInsts                       0                       # Number of Instructions committed (Count)
system.cpu0.thread_0.numOps                         0                       # Number of Ops committed (Count)
system.cpu0.thread_0.numMemRefs                     0                       # Number of Memory References (Count)
system.cpu0.workload.numSyscalls                   75                       # Number of system calls (Count)
system.cpu1.numCycles                      1528946397                       # Number of cpu cycles simulated (Cycle)
system.cpu1.cpi                             16.397293                       # CPI: cycles per instruction (core level) ((Cycle/Count))
system.cpu1.ipc                              0.060986                       # IPC: instructions per cycle (core level) ((Count/Cycle))
system.cpu1.numWorkItemsStarted                     0                       # Number of work items this cpu started (Count)
system.cpu1.numWorkItemsCompleted                   0                       # Number of work items this cpu completed (Count)
system.cpu1.commitStats0.numInsts            93243832                       # Number of instructions committed (thread level) (Count)
system.cpu1.commitStats0.numOps             141852219                       # Number of ops (including micro ops) committed (thread level) (Count)
system.cpu1.commitStats0.numInstsNotNOP             0                       # Number of instructions committed excluding NOPs or prefetches (Count)
system.cpu1.commitStats0.numOpsNotNOP               0                       # Number of Ops (including micro ops) Simulated (Count)
system.cpu1.commitStats0.cpi                16.397293                       # CPI: cycles per instruction (thread level) ((Cycle/Count))
system.cpu1.commitStats0.ipc                 0.060986                       # IPC: instructions per cycle (thread level) ((Count/Cycle))
system.cpu1.commitStats0.numMemRefs                 0                       # Number of memory references committed (Count)
system.cpu1.commitStats0.numFpInsts           1000847                       # Number of float instructions (Count)
system.cpu1.commitStats0.numIntInsts        137299573                       # Number of integer instructions (Count)
system.cpu1.commitStats0.numLoadInsts        35803119                       # Number of load instructions (Count)
system.cpu1.commitStats0.numStoreInsts       19751212                       # Number of store instructions (Count)
system.cpu1.commitStats0.numVecInsts                0                       # Number of vector instructions (Count)
system.cpu1.commitStats0.committedInstType::No_OpClass      4250144      3.00%      3.00% # Class of committed instruction. (Count)
system.cpu1.commitStats0.committedInstType::IntAlu     82047355     57.84%     60.84% # Class of committed instruction. (Count)
system.cpu1.commitStats0.committedInstType::IntMult            7      0.00%     60.84% # Class of committed instruction. (Count)
system.cpu1.commitStats0.committedInstType::IntDiv            0      0.00%     60.84% # Class of committed instruction. (Count)
system.cpu1.commitStats0.committedInstType::FloatAdd          140      0.00%     60.84% # Class of committed instruction. (Count)
system.cpu1.commitStats0.committedInstType::FloatCmp            0      0.00%     60.84% # Class of committed instruction. (Count)
system.cpu1.commitStats0.committedInstType::FloatCvt            0      0.00%     60.84% # Class of committed instruction. (Count)
system.cpu1.commitStats0.committedInstType::FloatMult            0      0.00%     60.84% # Class of committed instruction. (Count)
system.cpu1.commitStats0.committedInstType::FloatMultAcc            0      0.00%     60.84% # Class of committed instruction. (Count)
system.cpu1.commitStats0.committedInstType::FloatDiv            0      0.00%     60.84% # Class of committed instruction. (Count)
system.cpu1.commitStats0.committedInstType::FloatMisc            0      0.00%     60.84% # Class of committed instruction. (Count)
system.cpu1.commitStats0.committedInstType::FloatSqrt            0      0.00%     60.84% # Class of committed instruction. (Count)
system.cpu1.commitStats0.committedInstType::SimdAdd            0      0.00%     60.84% # Class of committed instruction. (Count)
system.cpu1.commitStats0.committedInstType::SimdAddAcc            0      0.00%     60.84% # Class of committed instruction. (Count)
system.cpu1.commitStats0.committedInstType::SimdAlu           32      0.00%     60.84% # Class of committed instruction. (Count)
system.cpu1.commitStats0.committedInstType::SimdCmp            0      0.00%     60.84% # Class of committed instruction. (Count)
system.cpu1.commitStats0.committedInstType::SimdCvt           18      0.00%     60.84% # Class of committed instruction. (Count)
system.cpu1.commitStats0.committedInstType::SimdMisc          161      0.00%     60.84% # Class of committed instruction. (Count)
system.cpu1.commitStats0.committedInstType::SimdMult            0      0.00%     60.84% # Class of committed instruction. (Count)
system.cpu1.commitStats0.committedInstType::SimdMultAcc            0      0.00%     60.84% # Class of committed instruction. (Count)
system.cpu1.commitStats0.committedInstType::SimdMatMultAcc            0      0.00%     60.84% # Class of committed instruction. (Count)
system.cpu1.commitStats0.committedInstType::SimdShift            0      0.00%     60.84% # Class of committed instruction. (Count)
system.cpu1.commitStats0.committedInstType::SimdShiftAcc            0      0.00%     60.84% # Class of committed instruction. (Count)
system.cpu1.commitStats0.committedInstType::SimdDiv            0      0.00%     60.84% # Class of committed instruction. (Count)
system.cpu1.commitStats0.committedInstType::SimdSqrt            0      0.00%     60.84% # Class of committed instruction. (Count)
system.cpu1.commitStats0.committedInstType::SimdFloatAdd           16      0.00%     60.84% # Class of committed instruction. (Count)
system.cpu1.commitStats0.committedInstType::SimdFloatAlu            0      0.00%     60.84% # Class of committed instruction. (Count)
system.cpu1.commitStats0.committedInstType::SimdFloatCmp            0      0.00%     60.84% # Class of committed instruction. (Count)
system.cpu1.commitStats0.committedInstType::SimdFloatCvt            3      0.00%     60.84% # Class of committed instruction. (Count)
system.cpu1.commitStats0.committedInstType::SimdFloatDiv            0      0.00%     60.84% # Class of committed instruction. (Count)
system.cpu1.commitStats0.committedInstType::SimdFloatMisc            0      0.00%     60.84% # Class of committed instruction. (Count)
system.cpu1.commitStats0.committedInstType::SimdFloatMult           12      0.00%     60.84% # Class of committed instruction. (Count)
system.cpu1.commitStats0.committedInstType::SimdFloatMultAcc            0      0.00%     60.84% # Class of committed instruction. (Count)
system.cpu1.commitStats0.committedInstType::SimdFloatMatMultAcc            0      0.00%     60.84% # Class of committed instruction. (Count)
system.cpu1.commitStats0.committedInstType::SimdFloatSqrt            0      0.00%     60.84% # Class of committed instruction. (Count)
system.cpu1.commitStats0.committedInstType::SimdReduceAdd            0      0.00%     60.84% # Class of committed instruction. (Count)
system.cpu1.commitStats0.committedInstType::SimdReduceAlu            0      0.00%     60.84% # Class of committed instruction. (Count)
system.cpu1.commitStats0.committedInstType::SimdReduceCmp            0      0.00%     60.84% # Class of committed instruction. (Count)
system.cpu1.commitStats0.committedInstType::SimdFloatReduceAdd            0      0.00%     60.84% # Class of committed instruction. (Count)
system.cpu1.commitStats0.committedInstType::SimdFloatReduceCmp            0      0.00%     60.84% # Class of committed instruction. (Count)
system.cpu1.commitStats0.committedInstType::SimdAes            0      0.00%     60.84% # Class of committed instruction. (Count)
system.cpu1.commitStats0.committedInstType::SimdAesMix            0      0.00%     60.84% # Class of committed instruction. (Count)
system.cpu1.commitStats0.committedInstType::SimdSha1Hash            0      0.00%     60.84% # Class of committed instruction. (Count)
system.cpu1.commitStats0.committedInstType::SimdSha1Hash2            0      0.00%     60.84% # Class of committed instruction. (Count)
system.cpu1.commitStats0.committedInstType::SimdSha256Hash            0      0.00%     60.84% # Class of committed instruction. (Count)
system.cpu1.commitStats0.committedInstType::SimdSha256Hash2            0      0.00%     60.84% # Class of committed instruction. (Count)
system.cpu1.commitStats0.committedInstType::SimdShaSigma2            0      0.00%     60.84% # Class of committed instruction. (Count)
system.cpu1.commitStats0.committedInstType::SimdShaSigma3            0      0.00%     60.84% # Class of committed instruction. (Count)
system.cpu1.commitStats0.committedInstType::SimdPredAlu            0      0.00%     60.84% # Class of committed instruction. (Count)
system.cpu1.commitStats0.committedInstType::Matrix            0      0.00%     60.84% # Class of committed instruction. (Count)
system.cpu1.commitStats0.committedInstType::MatrixMov            0      0.00%     60.84% # Class of committed instruction. (Count)
system.cpu1.commitStats0.committedInstType::MatrixOP            0      0.00%     60.84% # Class of committed instruction. (Count)
system.cpu1.commitStats0.committedInstType::MemRead     35303074     24.89%     85.72% # Class of committed instruction. (Count)
system.cpu1.commitStats0.committedInstType::MemWrite     19250934     13.57%     99.29% # Class of committed instruction. (Count)
system.cpu1.commitStats0.committedInstType::FloatMemRead       500045      0.35%     99.65% # Class of committed instruction. (Count)
system.cpu1.commitStats0.committedInstType::FloatMemWrite       500278      0.35%    100.00% # Class of committed instruction. (Count)
system.cpu1.commitStats0.committedInstType::IprAccess            0      0.00%    100.00% # Class of committed instruction. (Count)
system.cpu1.commitStats0.committedInstType::InstPrefetch            0      0.00%    100.00% # Class of committed instruction. (Count)
system.cpu1.commitStats0.committedInstType::SimdUnitStrideLoad            0      0.00%    100.00% # Class of committed instruction. (Count)
system.cpu1.commitStats0.committedInstType::SimdUnitStrideStore            0      0.00%    100.00% # Class of committed instruction. (Count)
system.cpu1.commitStats0.committedInstType::SimdUnitStrideMaskLoad            0      0.00%    100.00% # Class of committed instruction. (Count)
system.cpu1.commitStats0.committedInstType::SimdUnitStrideMaskStore            0      0.00%    100.00% # Class of committed instruction. (Count)
system.cpu1.commitStats0.committedInstType::SimdStridedLoad            0      0.00%    100.00% # Class of committed instruction. (Count)
system.cpu1.commitStats0.committedInstType::SimdStridedStore            0      0.00%    100.00% # Class of committed instruction. (Count)
system.cpu1.commitStats0.committedInstType::SimdIndexedLoad            0      0.00%    100.00% # Class of committed instruction. (Count)
system.cpu1.commitStats0.committedInstType::SimdIndexedStore            0      0.00%    100.00% # Class of committed instruction. (Count)
system.cpu1.commitStats0.committedInstType::SimdWholeRegisterLoad            0      0.00%    100.00% # Class of committed instruction. (Count)
system.cpu1.commitStats0.committedInstType::SimdWholeRegisterStore            0      0.00%    100.00% # Class of committed instruction. (Count)
system.cpu1.commitStats0.committedInstType::SimdUnitStrideFaultOnlyFirstLoad            0      0.00%    100.00% # Class of committed instruction. (Count)
system.cpu1.commitStats0.committedInstType::SimdUnitStrideSegmentedLoad            0      0.00%    100.00% # Class of committed instruction. (Count)
system.cpu1.commitStats0.committedInstType::SimdUnitStrideSegmentedStore            0      0.00%    100.00% # Class of committed instruction. (Count)
system.cpu1.commitStats0.committedInstType::SimdUnitStrideSegmentedFaultOnlyFirstLoad            0      0.00%    100.00% # Class of committed instruction. (Count)
system.cpu1.commitStats0.committedInstType::SimdStrideSegmentedLoad            0      0.00%    100.00% # Class of committed instruction. (Count)
system.cpu1.commitStats0.committedInstType::SimdStrideSegmentedStore            0      0.00%    100.00% # Class of committed instruction. (Count)
system.cpu1.commitStats0.committedInstType::SimdExt            0      0.00%    100.00% # Class of committed instruction. (Count)
system.cpu1.commitStats0.committedInstType::SimdFloatExt            0      0.00%    100.00% # Class of committed instruction. (Count)
system.cpu1.commitStats0.committedInstType::SimdConfig            0      0.00%    100.00% # Class of committed instruction. (Count)
system.cpu1.commitStats0.committedInstType::total    141852219                       # Class of committed instruction. (Count)
system.cpu1.commitStats0.committedControl::IsControl     12136136                       # Class of control type instructions committed (Count)
system.cpu1.commitStats0.committedControl::IsDirectControl      8135988                       # Class of control type instructions committed (Count)
system.cpu1.commitStats0.committedControl::IsIndirectControl      4000148                       # Class of control type instructions committed (Count)
system.cpu1.commitStats0.committedControl::IsCondControl      3635828                       # Class of control type instructions committed (Count)
system.cpu1.commitStats0.committedControl::IsUncondControl      8500308                       # Class of control type instructions committed (Count)
system.cpu1.commitStats0.committedControl::IsCall      4000112                       # Class of control type instructions committed (Count)
system.cpu1.commitStats0.committedControl::IsReturn      4000109                       # Class of control type instructions committed (Count)
system.cpu1.dcache.demandHits::cpu1.data     55021718                       # number of demand (read+write) hits (Count)
system.cpu1.dcache.demandHits::total         55021718                       # number of demand (read+write) hits (Count)
system.cpu1.dcache.overallHits::cpu1.data     55021718                       # number of overall hits (Count)
system.cpu1.dcache.overallHits::total        55021718                       # number of overall hits (Count)
system.cpu1.dcache.demandMisses::cpu1.data       282521                       # number of demand (read+write) misses (Count)
system.cpu1.dcache.demandMisses::total         282521                       # number of demand (read+write) misses (Count)
system.cpu1.dcache.overallMisses::cpu1.data       282521                       # number of overall misses (Count)
system.cpu1.dcache.overallMisses::total        282521                       # number of overall misses (Count)
system.cpu1.dcache.demandAccesses::cpu1.data     55304239                       # number of demand (read+write) accesses (Count)
system.cpu1.dcache.demandAccesses::total     55304239                       # number of demand (read+write) accesses (Count)
system.cpu1.dcache.overallAccesses::cpu1.data     55304239                       # number of overall (read+write) accesses (Count)
system.cpu1.dcache.overallAccesses::total     55304239                       # number of overall (read+write) accesses (Count)
system.cpu1.dcache.demandMissRate::cpu1.data     0.005108                       # miss rate for demand accesses (Ratio)
system.cpu1.dcache.demandMissRate::total     0.005108                       # miss rate for demand accesses (Ratio)
system.cpu1.dcache.overallMissRate::cpu1.data     0.005108                       # miss rate for overall accesses (Ratio)
system.cpu1.dcache.overallMissRate::total     0.005108                       # miss rate for overall accesses (Ratio)
system.cpu1.dcache.blockedCycles::no_mshrs            0                       # number of cycles access was blocked (Cycle)
system.cpu1.dcache.blockedCycles::no_targets            0                       # number of cycles access was blocked (Cycle)
system.cpu1.dcache.blockedCauses::no_mshrs            0                       # number of times access was blocked (Count)
system.cpu1.dcache.blockedCauses::no_targets            0                       # number of times access was blocked (Count)
system.cpu1.dcache.avgBlocked::no_mshrs           nan                       # average number of cycles each access was blocked ((Cycle/Count))
system.cpu1.dcache.avgBlocked::no_targets          nan                       # average number of cycles each access was blocked ((Cycle/Count))
system.cpu1.dcache.writebacks::writebacks       141699                       # number of writebacks (Count)
system.cpu1.dcache.writebacks::total           141699                       # number of writebacks (Count)
system.cpu1.dcache.replacements                281445                       # number of replacements (Count)
system.cpu1.dcache.LockedRMWReadReq.hits::cpu1.data           28                       # number of LockedRMWReadReq hits (Count)
system.cpu1.dcache.LockedRMWReadReq.hits::total           28                       # number of LockedRMWReadReq hits (Count)
system.cpu1.dcache.LockedRMWReadReq.misses::cpu1.data           19                       # number of LockedRMWReadReq misses (Count)
system.cpu1.dcache.LockedRMWReadReq.misses::total           19                       # number of LockedRMWReadReq misses (Count)
system.cpu1.dcache.LockedRMWReadReq.accesses::cpu1.data           47                       # number of LockedRMWReadReq accesses(hits+misses) (Count)
system.cpu1.dcache.LockedRMWReadReq.accesses::total           47                       # number of LockedRMWReadReq accesses(hits+misses) (Count)
system.cpu1.dcache.LockedRMWReadReq.missRate::cpu1.data     0.404255                       # miss rate for LockedRMWReadReq accesses (Ratio)
system.cpu1.dcache.LockedRMWReadReq.missRate::total     0.404255                       # miss rate for LockedRMWReadReq accesses (Ratio)
system.cpu1.dcache.LockedRMWWriteReq.hits::cpu1.data           47                       # number of LockedRMWWriteReq hits (Count)
system.cpu1.dcache.LockedRMWWriteReq.hits::total           47                       # number of LockedRMWWriteReq hits (Count)
system.cpu1.dcache.LockedRMWWriteReq.accesses::cpu1.data           47                       # number of LockedRMWWriteReq accesses(hits+misses) (Count)
system.cpu1.dcache.LockedRMWWriteReq.accesses::total           47                       # number of LockedRMWWriteReq accesses(hits+misses) (Count)
system.cpu1.dcache.ReadReq.hits::cpu1.data     35654005                       # number of ReadReq hits (Count)
system.cpu1.dcache.ReadReq.hits::total       35654005                       # number of ReadReq hits (Count)
system.cpu1.dcache.ReadReq.misses::cpu1.data       149067                       # number of ReadReq misses (Count)
system.cpu1.dcache.ReadReq.misses::total       149067                       # number of ReadReq misses (Count)
system.cpu1.dcache.ReadReq.accesses::cpu1.data     35803072                       # number of ReadReq accesses(hits+misses) (Count)
system.cpu1.dcache.ReadReq.accesses::total     35803072                       # number of ReadReq accesses(hits+misses) (Count)
system.cpu1.dcache.ReadReq.missRate::cpu1.data     0.004164                       # miss rate for ReadReq accesses (Ratio)
system.cpu1.dcache.ReadReq.missRate::total     0.004164                       # miss rate for ReadReq accesses (Ratio)
system.cpu1.dcache.WriteReq.hits::cpu1.data     19367713                       # number of WriteReq hits (Count)
system.cpu1.dcache.WriteReq.hits::total      19367713                       # number of WriteReq hits (Count)
system.cpu1.dcache.WriteReq.misses::cpu1.data       133454                       # number of WriteReq misses (Count)
system.cpu1.dcache.WriteReq.misses::total       133454                       # number of WriteReq misses (Count)
system.cpu1.dcache.WriteReq.accesses::cpu1.data     19501167                       # number of WriteReq accesses(hits+misses) (Count)
system.cpu1.dcache.WriteReq.accesses::total     19501167                       # number of WriteReq accesses(hits+misses) (Count)
system.cpu1.dcache.WriteReq.missRate::cpu1.data     0.006843                       # miss rate for WriteReq accesses (Ratio)
system.cpu1.dcache.WriteReq.missRate::total     0.006843                       # miss rate for WriteReq accesses (Ratio)
system.cpu1.dcache.power_state.pwrStateResidencyTicks::UNDEFINED 764473146000                       # Cumulative time (in ticks) in various power states (Tick)
system.cpu1.dcache.tags.tagsInUse          203.380072                       # Average ticks per tags in use ((Tick/Count))
system.cpu1.dcache.tags.totalRefs            55304333                       # Total number of references to valid blocks. (Count)
system.cpu1.dcache.tags.sampledRefs            282516                       # Sample count of references to valid blocks. (Count)
system.cpu1.dcache.tags.avgRefs            195.756463                       # Average number of references to valid blocks. ((Count/Count))
system.cpu1.dcache.tags.warmupTick       114911172000                       # The tick when the warmup percentage was hit. (Tick)
system.cpu1.dcache.tags.occupancies::cpu1.data   203.380072                       # Average occupied blocks per tick, per requestor ((Count/Tick))
system.cpu1.dcache.tags.avgOccs::cpu1.data     0.198613                       # Average percentage of cache occupancy ((Ratio/Tick))
system.cpu1.dcache.tags.avgOccs::total       0.198613                       # Average percentage of cache occupancy ((Ratio/Tick))
system.cpu1.dcache.tags.occupanciesTaskId::1024         1022                       # Occupied blocks per task id (Count)
system.cpu1.dcache.tags.ageTaskId_1024::0          279                       # Occupied blocks per task id, per block age (Count)
system.cpu1.dcache.tags.ageTaskId_1024::1          743                       # Occupied blocks per task id, per block age (Count)
system.cpu1.dcache.tags.ratioOccsTaskId::1024     0.998047                       # Ratio of occupied blocks and all blocks, per task id (Ratio)
system.cpu1.dcache.tags.tagAccesses          55586849                       # Number of tag accesses (Count)
system.cpu1.dcache.tags.dataAccesses         55586849                       # Number of data accesses (Count)
system.cpu1.dcache.tags.power_state.pwrStateResidencyTicks::UNDEFINED 764473146000                       # Cumulative time (in ticks) in various power states (Tick)
system.cpu1.dtb_walker_cache.blockedCycles::no_mshrs            0                       # number of cycles access was blocked (Cycle)
system.cpu1.dtb_walker_cache.blockedCycles::no_targets            0                       # number of cycles access was blocked (Cycle)
system.cpu1.dtb_walker_cache.blockedCauses::no_mshrs            0                       # number of times access was blocked (Count)
system.cpu1.dtb_walker_cache.blockedCauses::no_targets            0                       # number of times access was blocked (Count)
system.cpu1.dtb_walker_cache.avgBlocked::no_mshrs          nan                       # average number of cycles each access was blocked ((Cycle/Count))
system.cpu1.dtb_walker_cache.avgBlocked::no_targets          nan                       # average number of cycles each access was blocked ((Cycle/Count))
system.cpu1.dtb_walker_cache.replacements            0                       # number of replacements (Count)
system.cpu1.dtb_walker_cache.power_state.pwrStateResidencyTicks::UNDEFINED 764473146000                       # Cumulative time (in ticks) in various power states (Tick)
system.cpu1.dtb_walker_cache.tags.tagsInUse            0                       # Average ticks per tags in use ((Tick/Count))
system.cpu1.dtb_walker_cache.tags.totalRefs            0                       # Total number of references to valid blocks. (Count)
system.cpu1.dtb_walker_cache.tags.sampledRefs            0                       # Sample count of references to valid blocks. (Count)
system.cpu1.dtb_walker_cache.tags.avgRefs          nan                       # Average number of references to valid blocks. ((Count/Count))
system.cpu1.dtb_walker_cache.tags.warmupTick            0                       # The tick when the warmup percentage was hit. (Tick)
system.cpu1.dtb_walker_cache.tags.tagAccesses            0                       # Number of tag accesses (Count)
system.cpu1.dtb_walker_cache.tags.dataAccesses            0                       # Number of data accesses (Count)
system.cpu1.dtb_walker_cache.tags.power_state.pwrStateResidencyTicks::UNDEFINED 764473146000                       # Cumulative time (in ticks) in various power states (Tick)
system.cpu1.exec_context.thread_0.numMatAluAccesses            0                       # Number of matrix alu accesses (Count)
system.cpu1.exec_context.thread_0.numCallsReturns      8000221                       # Number of times a function call or return occured (Count)
system.cpu1.exec_context.thread_0.numMatInsts            0                       # Number of matrix instructions (Count)
system.cpu1.exec_context.thread_0.numIdleCycles 1358551339.298386                       # Number of idle cycles (Cycle)
system.cpu1.exec_context.thread_0.numBusyCycles 170395057.701614                       # Number of busy cycles (Cycle)
system.cpu1.exec_context.thread_0.notIdleFraction     0.111446                       # Percentage of non-idle cycles (Ratio)
system.cpu1.exec_context.thread_0.idleFraction     0.888554                       # Percentage of idle cycles (Ratio)
system.cpu1.executeStats0.numInsts                  0                       # Number of executed instructions (Count)
system.cpu1.executeStats0.numNop                    0                       # Number of nop insts executed (Count)
system.cpu1.executeStats0.numBranches               0                       # Number of branches executed (Count)
system.cpu1.executeStats0.numLoadInsts              0                       # Number of load instructions executed (Count)
system.cpu1.executeStats0.numStoreInsts      55554331                       # Number of stores executed (Count)
system.cpu1.executeStats0.instRate                  0                       # Inst execution rate ((Count/Cycle))
system.cpu1.executeStats0.numFpAluAccesses      1000847                       # Number of float alu accesses (Count)
system.cpu1.executeStats0.numFpRegReads        500931                       # Number of times the floating registers were read (Count)
system.cpu1.executeStats0.numFpRegWrites       500545                       # Number of times the floating registers were written (Count)
system.cpu1.executeStats0.numIntAluAccesses    137299573                       # Number of integer alu accesses (Count)
system.cpu1.executeStats0.numIntRegReads    166769396                       # Number of times the integer registers were read (Count)
system.cpu1.executeStats0.numIntRegWrites    100307660                       # Number of times the integer registers were written (Count)
system.cpu1.executeStats0.numMemRefs         55554331                       # Number of memory refs (Count)
system.cpu1.executeStats0.numMiscRegReads     75826422                       # Number of times the Misc registers were read (Count)
system.cpu1.executeStats0.numVecAluAccesses            0                       # Number of vector alu accesses (Count)
system.cpu1.executeStats0.numDiscardedOps            0                       # Number of ops (including micro ops) which were discarded before commit (Count)
system.cpu1.fetchStats0.numInsts             93243832                       # Number of instructions fetched (thread level) (Count)
system.cpu1.fetchStats0.numOps              141852219                       # Number of ops (including micro ops) fetched (thread level) (Count)
system.cpu1.fetchStats0.fetchRate            0.060986                       # Number of inst fetches per cycle ((Count/Cycle))
system.cpu1.fetchStats0.numBranches          12136136                       # Number of branches fetched (Count)
system.cpu1.fetchStats0.branchRate           0.007938                       # Number of branch fetches per cycle (Ratio)
system.cpu1.fetchStats0.numFetchSuspends            0                       # Number of times Execute suspended instruction fetching (Count)
system.cpu1.icache.demandHits::cpu1.inst    122036473                       # number of demand (read+write) hits (Count)
system.cpu1.icache.demandHits::total        122036473                       # number of demand (read+write) hits (Count)
system.cpu1.icache.overallHits::cpu1.inst    122036473                       # number of overall hits (Count)
system.cpu1.icache.overallHits::total       122036473                       # number of overall hits (Count)
system.cpu1.icache.demandMisses::cpu1.inst          289                       # number of demand (read+write) misses (Count)
system.cpu1.icache.demandMisses::total            289                       # number of demand (read+write) misses (Count)
system.cpu1.icache.overallMisses::cpu1.inst          289                       # number of overall misses (Count)
system.cpu1.icache.overallMisses::total           289                       # number of overall misses (Count)
system.cpu1.icache.demandAccesses::cpu1.inst    122036762                       # number of demand (read+write) accesses (Count)
system.cpu1.icache.demandAccesses::total    122036762                       # number of demand (read+write) accesses (Count)
system.cpu1.icache.overallAccesses::cpu1.inst    122036762                       # number of overall (read+write) accesses (Count)
system.cpu1.icache.overallAccesses::total    122036762                       # number of overall (read+write) accesses (Count)
system.cpu1.icache.demandMissRate::cpu1.inst     0.000002                       # miss rate for demand accesses (Ratio)
system.cpu1.icache.demandMissRate::total     0.000002                       # miss rate for demand accesses (Ratio)
system.cpu1.icache.overallMissRate::cpu1.inst     0.000002                       # miss rate for overall accesses (Ratio)
system.cpu1.icache.overallMissRate::total     0.000002                       # miss rate for overall accesses (Ratio)
system.cpu1.icache.blockedCycles::no_mshrs            0                       # number of cycles access was blocked (Cycle)
system.cpu1.icache.blockedCycles::no_targets            0                       # number of cycles access was blocked (Cycle)
system.cpu1.icache.blockedCauses::no_mshrs            0                       # number of times access was blocked (Count)
system.cpu1.icache.blockedCauses::no_targets            0                       # number of times access was blocked (Count)
system.cpu1.icache.avgBlocked::no_mshrs           nan                       # average number of cycles each access was blocked ((Cycle/Count))
system.cpu1.icache.avgBlocked::no_targets          nan                       # average number of cycles each access was blocked ((Cycle/Count))
system.cpu1.icache.writebacks::writebacks           94                       # number of writebacks (Count)
system.cpu1.icache.writebacks::total               94                       # number of writebacks (Count)
system.cpu1.icache.replacements                    94                       # number of replacements (Count)
system.cpu1.icache.ReadReq.hits::cpu1.inst    122036473                       # number of ReadReq hits (Count)
system.cpu1.icache.ReadReq.hits::total      122036473                       # number of ReadReq hits (Count)
system.cpu1.icache.ReadReq.misses::cpu1.inst          289                       # number of ReadReq misses (Count)
system.cpu1.icache.ReadReq.misses::total          289                       # number of ReadReq misses (Count)
system.cpu1.icache.ReadReq.accesses::cpu1.inst    122036762                       # number of ReadReq accesses(hits+misses) (Count)
system.cpu1.icache.ReadReq.accesses::total    122036762                       # number of ReadReq accesses(hits+misses) (Count)
system.cpu1.icache.ReadReq.missRate::cpu1.inst     0.000002                       # miss rate for ReadReq accesses (Ratio)
system.cpu1.icache.ReadReq.missRate::total     0.000002                       # miss rate for ReadReq accesses (Ratio)
system.cpu1.icache.power_state.pwrStateResidencyTicks::UNDEFINED 764473146000                       # Cumulative time (in ticks) in various power states (Tick)
system.cpu1.icache.tags.tagsInUse          140.655337                       # Average ticks per tags in use ((Tick/Count))
system.cpu1.icache.tags.totalRefs           122036762                       # Total number of references to valid blocks. (Count)
system.cpu1.icache.tags.sampledRefs               289                       # Sample count of references to valid blocks. (Count)
system.cpu1.icache.tags.avgRefs          422272.532872                       # Average number of references to valid blocks. ((Count/Count))
system.cpu1.icache.tags.warmupTick       114911165500                       # The tick when the warmup percentage was hit. (Tick)
system.cpu1.icache.tags.occupancies::cpu1.inst   140.655337                       # Average occupied blocks per tick, per requestor ((Count/Tick))
system.cpu1.icache.tags.avgOccs::cpu1.inst     0.549435                       # Average percentage of cache occupancy ((Ratio/Tick))
system.cpu1.icache.tags.avgOccs::total       0.549435                       # Average percentage of cache occupancy ((Ratio/Tick))
system.cpu1.icache.tags.occupanciesTaskId::1024          195                       # Occupied blocks per task id (Count)
system.cpu1.icache.tags.ageTaskId_1024::0           17                       # Occupied blocks per task id, per block age (Count)
system.cpu1.icache.tags.ageTaskId_1024::3           26                       # Occupied blocks per task id, per block age (Count)
system.cpu1.icache.tags.ageTaskId_1024::4          152                       # Occupied blocks per task id, per block age (Count)
system.cpu1.icache.tags.ratioOccsTaskId::1024     0.761719                       # Ratio of occupied blocks and all blocks, per task id (Ratio)
system.cpu1.icache.tags.tagAccesses         244073813                       # Number of tag accesses (Count)
system.cpu1.icache.tags.dataAccesses        244073813                       # Number of data accesses (Count)
system.cpu1.icache.tags.power_state.pwrStateResidencyTicks::UNDEFINED 764473146000                       # Cumulative time (in ticks) in various power states (Tick)
system.cpu1.interrupts.clk_domain.clock          8000                       # Clock period in ticks (Tick)
system.cpu1.itb_walker_cache.blockedCycles::no_mshrs            0                       # number of cycles access was blocked (Cycle)
system.cpu1.itb_walker_cache.blockedCycles::no_targets            0                       # number of cycles access was blocked (Cycle)
system.cpu1.itb_walker_cache.blockedCauses::no_mshrs            0                       # number of times access was blocked (Count)
system.cpu1.itb_walker_cache.blockedCauses::no_targets            0                       # number of times access was blocked (Count)
system.cpu1.itb_walker_cache.avgBlocked::no_mshrs          nan                       # average number of cycles each access was blocked ((Cycle/Count))
system.cpu1.itb_walker_cache.avgBlocked::no_targets          nan                       # average number of cycles each access was blocked ((Cycle/Count))
system.cpu1.itb_walker_cache.replacements            0                       # number of replacements (Count)
system.cpu1.itb_walker_cache.power_state.pwrStateResidencyTicks::UNDEFINED 764473146000                       # Cumulative time (in ticks) in various power states (Tick)
system.cpu1.itb_walker_cache.tags.tagsInUse            0                       # Average ticks per tags in use ((Tick/Count))
system.cpu1.itb_walker_cache.tags.totalRefs            0                       # Total number of references to valid blocks. (Count)
system.cpu1.itb_walker_cache.tags.sampledRefs            0                       # Sample count of references to valid blocks. (Count)
system.cpu1.itb_walker_cache.tags.avgRefs          nan                       # Average number of references to valid blocks. ((Count/Count))
system.cpu1.itb_walker_cache.tags.warmupTick            0                       # The tick when the warmup percentage was hit. (Tick)
system.cpu1.itb_walker_cache.tags.tagAccesses            0                       # Number of tag accesses (Count)
system.cpu1.itb_walker_cache.tags.dataAccesses            0                       # Number of data accesses (Count)
system.cpu1.itb_walker_cache.tags.power_state.pwrStateResidencyTicks::UNDEFINED 764473146000                       # Cumulative time (in ticks) in various power states (Tick)
system.cpu1.mmu.dtb.rdAccesses               35803119                       # TLB accesses on read requests (Count)
system.cpu1.mmu.dtb.wrAccesses               19751212                       # TLB accesses on write requests (Count)
system.cpu1.mmu.dtb.rdMisses                     1991                       # TLB misses on read requests (Count)
system.cpu1.mmu.dtb.wrMisses                     1947                       # TLB misses on write requests (Count)
system.cpu1.mmu.dtb.walker.power_state.pwrStateResidencyTicks::UNDEFINED 764473146000                       # Cumulative time (in ticks) in various power states (Tick)
system.cpu1.mmu.itb.rdAccesses                      0                       # TLB accesses on read requests (Count)
system.cpu1.mmu.itb.wrAccesses              122036762                       # TLB accesses on write requests (Count)
[...]
system.mem_ctrls.dram.rank1.writeEnergy             0                       # Energy for write commands per rank (pJ) (Joule)
system.mem_ctrls.dram.rank1.refreshEnergy            0                       # Energy for refresh commands per rank (pJ) (Joule)
system.mem_ctrls.dram.rank1.actBackEnergy            0                       # Energy for active background per rank (pJ) (Joule)
system.mem_ctrls.dram.rank1.preBackEnergy 293557688160                       # Energy for precharge background per rank (pJ) (Joule)
system.mem_ctrls.dram.rank1.actPowerDownEnergy            0                       # Energy for active power-down per rank (pJ) (Joule)
system.mem_ctrls.dram.rank1.prePowerDownEnergy            0                       # Energy for precharge power-down per rank (pJ) (Joule)
system.mem_ctrls.dram.rank1.selfRefreshEnergy            0                       # Energy for self refresh per rank (pJ) (Joule)
system.mem_ctrls.dram.rank1.totalEnergy  293557688160                       # Total energy per rank (pJ) (Joule)
system.mem_ctrls.dram.rank1.averagePower   384.000000                       # Core power per rank (mW) (Watt)
system.mem_ctrls.dram.rank1.totalIdleTime            0                       # Total Idle time Per DRAM Rank (Tick)
system.mem_ctrls.dram.rank1.pwrStateTime::IDLE 764473146000                       # Time in different power states (Tick)
system.mem_ctrls.dram.rank1.pwrStateTime::REF            0                       # Time in different power states (Tick)
system.mem_ctrls.dram.rank1.pwrStateTime::SREF            0                       # Time in different power states (Tick)
system.mem_ctrls.dram.rank1.pwrStateTime::PRE_PDN            0                       # Time in different power states (Tick)
system.mem_ctrls.dram.rank1.pwrStateTime::ACT            0                       # Time in different power states (Tick)
system.mem_ctrls.dram.rank1.pwrStateTime::ACT_PDN            0                       # Time in different power states (Tick)
system.mem_ctrls.power_state.pwrStateResidencyTicks::UNDEFINED 764473146000                       # Cumulative time (in ticks) in various power states (Tick)
system.membus.transDist::ReadResp              898205                       # Transaction distribution (Count)
system.membus.transDist::WritebackDirty       1162079                       # Transaction distribution (Count)
system.membus.transDist::CleanEvict            722604                       # Transaction distribution (Count)
system.membus.transDist::UpgradeReq               258                       # Transaction distribution (Count)
system.membus.transDist::UpgradeResp                8                       # Transaction distribution (Count)
system.membus.transDist::ReadExReq            1019855                       # Transaction distribution (Count)
system.membus.transDist::ReadExResp           1019406                       # Transaction distribution (Count)
system.membus.transDist::ReadSharedReq         898205                       # Transaction distribution (Count)
system.membus.pktCount_system.l2.mem_side_port::system.mem_ctrls.port      5720620                       # Packet count per connected requestor and responder (Count)
system.membus.pktCount_system.l2.mem_side_port::total      5720620                       # Packet count per connected requestor and responder (Count)
system.membus.pktCount::total                 5720620                       # Packet count per connected requestor and responder (Count)
system.membus.pktSize_system.l2.mem_side_port::system.mem_ctrls.port    197100160                       # Cumulative packet size per connected requestor and responder (Byte)
system.membus.pktSize_system.l2.mem_side_port::total    197100160                       # Cumulative packet size per connected requestor and responder (Byte)
system.membus.pktSize::total                197100160                       # Cumulative packet size per connected requestor and responder (Byte)
system.membus.snoops                                0                       # Total snoops (Count)
system.membus.snoopTraffic                          0                       # Total snoop traffic (Byte)
system.membus.snoopFanout::samples            1918318                       # Request fanout histogram (Count)
system.membus.snoopFanout::mean                     0                       # Request fanout histogram (Count)
system.membus.snoopFanout::stdev                    0                       # Request fanout histogram (Count)
system.membus.snoopFanout::underflows               0      0.00%      0.00% # Request fanout histogram (Count)
system.membus.snoopFanout::0                  1918318    100.00%    100.00% # Request fanout histogram (Count)
system.membus.snoopFanout::1                        0      0.00%    100.00% # Request fanout histogram (Count)
system.membus.snoopFanout::overflows                0      0.00%    100.00% # Request fanout histogram (Count)
system.membus.snoopFanout::min_value                0                       # Request fanout histogram (Count)
system.membus.snoopFanout::max_value                0                       # Request fanout histogram (Count)
system.membus.snoopFanout::total              1918318                       # Request fanout histogram (Count)
system.membus.power_state.pwrStateResidencyTicks::UNDEFINED 764473146000                       # Cumulative time (in ticks) in various power states (Tick)
system.membus.snoop_filter.totRequests        3803001                       # Total number of requests made to the snoop filter. (Count)
system.membus.snoop_filter.hitSingleRequests      1913642                       # Number of requests hitting in the snoop filter with a single holder of the requested data. (Count)
system.membus.snoop_filter.hitMultiRequests            0                       # Number of requests hitting in the snoop filter with multiple (>1) holders of the requested data. (Count)
system.membus.snoop_filter.totSnoops                0                       # Total number of snoops made to the snoop filter. (Count)
system.membus.snoop_filter.hitSingleSnoops            0                       # Number of snoops hitting in the snoop filter with a single holder of the requested data. (Count)
system.membus.snoop_filter.hitMultiSnoops            0                       # Number of snoops hitting in the snoop filter with multiple (>1) holders of the requested data. (Count)
system.tol2bus.transDist::ReadResp            1792586                       # Transaction distribution (Count)
system.tol2bus.transDist::WritebackDirty      2169193                       # Transaction distribution (Count)
system.tol2bus.transDist::WritebackClean         2273                       # Transaction distribution (Count)
system.tol2bus.transDist::CleanEvict           981370                       # Transaction distribution (Count)
system.tol2bus.transDist::UpgradeReq              289                       # Transaction distribution (Count)
system.tol2bus.transDist::UpgradeResp             289                       # Transaction distribution (Count)
system.tol2bus.transDist::ReadExReq           1371663                       # Transaction distribution (Count)
system.tol2bus.transDist::ReadExResp          1371663                       # Transaction distribution (Count)
system.tol2bus.transDist::ReadCleanReq           3826                       # Transaction distribution (Count)
system.tol2bus.transDist::ReadSharedReq       1788760                       # Transaction distribution (Count)
system.tol2bus.pktCount_system.cpu0.icache.mem_side_port::system.l2.cpu_side_port         5921                       # Packet count per connected requestor and responder (Count)
system.tol2bus.pktCount_system.cpu0.dcache.mem_side_port::system.l2.cpu_side_port      1616740                       # Packet count per connected requestor and responder (Count)
system.tol2bus.pktCount_system.cpu1.icache.mem_side_port::system.l2.cpu_side_port          672                       # Packet count per connected requestor and responder (Count)
system.tol2bus.pktCount_system.cpu1.dcache.mem_side_port::system.l2.cpu_side_port       846525                       # Packet count per connected requestor and responder (Count)
system.tol2bus.pktCount_system.cpu2.icache.mem_side_port::system.l2.cpu_side_port          472                       # Packet count per connected requestor and responder (Count)
system.tol2bus.pktCount_system.cpu2.dcache.mem_side_port::system.l2.cpu_side_port      1644799                       # Packet count per connected requestor and responder (Count)
system.tol2bus.pktCount_system.cpu3.icache.mem_side_port::system.l2.cpu_side_port          617                       # Packet count per connected requestor and responder (Count)
system.tol2bus.pktCount_system.cpu3.dcache.mem_side_port::system.l2.cpu_side_port       973309                       # Packet count per connected requestor and responder (Count)
system.tol2bus.pktCount_system.cpu4.icache.mem_side_port::system.l2.cpu_side_port          531                       # Packet count per connected requestor and responder (Count)
system.tol2bus.pktCount_system.cpu4.dcache.mem_side_port::system.l2.cpu_side_port       435445                       # Packet count per connected requestor and responder (Count)
system.tol2bus.pktCount_system.cpu5.icache.mem_side_port::system.l2.cpu_side_port          594                       # Packet count per connected requestor and responder (Count)
system.tol2bus.pktCount_system.cpu5.dcache.mem_side_port::system.l2.cpu_side_port      1774588                       # Packet count per connected requestor and responder (Count)
system.tol2bus.pktCount_system.cpu6.icache.mem_side_port::system.l2.cpu_side_port          605                       # Packet count per connected requestor and responder (Count)
system.tol2bus.pktCount_system.cpu6.dcache.mem_side_port::system.l2.cpu_side_port      1745456                       # Packet count per connected requestor and responder (Count)
system.tol2bus.pktCount_system.cpu7.icache.mem_side_port::system.l2.cpu_side_port          513                       # Packet count per connected requestor and responder (Count)
system.tol2bus.pktCount_system.cpu7.dcache.mem_side_port::system.l2.cpu_side_port       435125                       # Packet count per connected requestor and responder (Count)
system.tol2bus.pktCount::total                9481912                       # Packet count per connected requestor and responder (Count)
system.tol2bus.pktSize_system.cpu0.icache.mem_side_port::system.l2.cpu_side_port       247168                       # Cumulative packet size per connected requestor and responder (Byte)
system.tol2bus.pktSize_system.cpu0.dcache.mem_side_port::system.l2.cpu_side_port     62257408                       # Cumulative packet size per connected requestor and responder (Byte)
system.tol2bus.pktSize_system.cpu1.icache.mem_side_port::system.l2.cpu_side_port        24512                       # Cumulative packet size per connected requestor and responder (Byte)
system.tol2bus.pktSize_system.cpu1.dcache.mem_side_port::system.l2.cpu_side_port     27149760                       # Cumulative packet size per connected requestor and responder (Byte)
system.tol2bus.pktSize_system.cpu2.icache.mem_side_port::system.l2.cpu_side_port        16768                       # Cumulative packet size per connected requestor and responder (Byte)
system.tol2bus.pktSize_system.cpu2.dcache.mem_side_port::system.l2.cpu_side_port     61337984                       # Cumulative packet size per connected requestor and responder (Byte)
system.tol2bus.pktSize_system.cpu3.icache.mem_side_port::system.l2.cpu_side_port        22080                       # Cumulative packet size per connected requestor and responder (Byte)
system.tol2bus.pktSize_system.cpu3.dcache.mem_side_port::system.l2.cpu_side_port     34648768                       # Cumulative packet size per connected requestor and responder (Byte)
system.tol2bus.pktSize_system.cpu4.icache.mem_side_port::system.l2.cpu_side_port        18880                       # Cumulative packet size per connected requestor and responder (Byte)
system.tol2bus.pktSize_system.cpu4.dcache.mem_side_port::system.l2.cpu_side_port     14026432                       # Cumulative packet size per connected requestor and responder (Byte)
system.tol2bus.pktSize_system.cpu5.icache.mem_side_port::system.l2.cpu_side_port        21184                       # Cumulative packet size per connected requestor and responder (Byte)
system.tol2bus.pktSize_system.cpu5.dcache.mem_side_port::system.l2.cpu_side_port     64691712                       # Cumulative packet size per connected requestor and responder (Byte)
system.tol2bus.pktSize_system.cpu6.icache.mem_side_port::system.l2.cpu_side_port        21632                       # Cumulative packet size per connected requestor and responder (Byte)
system.tol2bus.pktSize_system.cpu6.dcache.mem_side_port::system.l2.cpu_side_port     63007296                       # Cumulative packet size per connected requestor and responder (Byte)
system.tol2bus.pktSize_system.cpu7.icache.mem_side_port::system.l2.cpu_side_port        18112                       # Cumulative packet size per connected requestor and responder (Byte)
system.tol2bus.pktSize_system.cpu7.dcache.mem_side_port::system.l2.cpu_side_port     13976064                       # Cumulative packet size per connected requestor and responder (Byte)
system.tol2bus.pktSize::total               341485760                       # Cumulative packet size per connected requestor and responder (Byte)
system.tol2bus.snoops                         2458027                       # Total snoops (Count)
system.tol2bus.snoopTraffic                  74373056                       # Total snoop traffic (Byte)
system.tol2bus.snoopFanout::samples           5622565                       # Request fanout histogram (Count)
system.tol2bus.snoopFanout::mean             0.291731                       # Request fanout histogram (Count)
system.tol2bus.snoopFanout::stdev            0.732653                       # Request fanout histogram (Count)
system.tol2bus.snoopFanout::underflows              0      0.00%      0.00% # Request fanout histogram (Count)
system.tol2bus.snoopFanout::0                 4445351     79.06%     79.06% # Request fanout histogram (Count)
system.tol2bus.snoopFanout::1                  990788     17.62%     96.68% # Request fanout histogram (Count)
system.tol2bus.snoopFanout::2                   51804      0.92%     97.61% # Request fanout histogram (Count)
system.tol2bus.snoopFanout::3                   37460      0.67%     98.27% # Request fanout histogram (Count)
system.tol2bus.snoopFanout::4                   53418      0.95%     99.22% # Request fanout histogram (Count)
system.tol2bus.snoopFanout::5                   43052      0.77%     99.99% # Request fanout histogram (Count)
system.tol2bus.snoopFanout::6                     335      0.01%     99.99% # Request fanout histogram (Count)
system.tol2bus.snoopFanout::7                     296      0.01%    100.00% # Request fanout histogram (Count)
system.tol2bus.snoopFanout::8                      61      0.00%    100.00% # Request fanout histogram (Count)
system.tol2bus.snoopFanout::9                       0      0.00%    100.00% # Request fanout histogram (Count)
system.tol2bus.snoopFanout::10                      0      0.00%    100.00% # Request fanout histogram (Count)
system.tol2bus.snoopFanout::11                      0      0.00%    100.00% # Request fanout histogram (Count)
system.tol2bus.snoopFanout::12                      0      0.00%    100.00% # Request fanout histogram (Count)
system.tol2bus.snoopFanout::13                      0      0.00%    100.00% # Request fanout histogram (Count)
system.tol2bus.snoopFanout::14                      0      0.00%    100.00% # Request fanout histogram (Count)
system.tol2bus.snoopFanout::15                      0      0.00%    100.00% # Request fanout histogram (Count)
system.tol2bus.snoopFanout::16                      0      0.00%    100.00% # Request fanout histogram (Count)
system.tol2bus.snoopFanout::17                      0      0.00%    100.00% # Request fanout histogram (Count)
system.tol2bus.snoopFanout::18                      0      0.00%    100.00% # Request fanout histogram (Count)
system.tol2bus.snoopFanout::19                      0      0.00%    100.00% # Request fanout histogram (Count)
system.tol2bus.snoopFanout::20                      0      0.00%    100.00% # Request fanout histogram (Count)
system.tol2bus.snoopFanout::21                      0      0.00%    100.00% # Request fanout histogram (Count)
system.tol2bus.snoopFanout::22                      0      0.00%    100.00% # Request fanout histogram (Count)
system.tol2bus.snoopFanout::23                      0      0.00%    100.00% # Request fanout histogram (Count)
system.tol2bus.snoopFanout::24                      0      0.00%    100.00% # Request fanout histogram (Count)
system.tol2bus.snoopFanout::25                      0      0.00%    100.00% # Request fanout histogram (Count)
system.tol2bus.snoopFanout::26                      0      0.00%    100.00% # Request fanout histogram (Count)
system.tol2bus.snoopFanout::27                      0      0.00%    100.00% # Request fanout histogram (Count)
system.tol2bus.snoopFanout::28                      0      0.00%    100.00% # Request fanout histogram (Count)
system.tol2bus.snoopFanout::29                      0      0.00%    100.00% # Request fanout histogram (Count)
system.tol2bus.snoopFanout::30                      0      0.00%    100.00% # Request fanout histogram (Count)
system.tol2bus.snoopFanout::31                      0      0.00%    100.00% # Request fanout histogram (Count)
system.tol2bus.snoopFanout::32                      0      0.00%    100.00% # Request fanout histogram (Count)
system.tol2bus.snoopFanout::overflows               0      0.00%    100.00% # Request fanout histogram (Count)
system.tol2bus.snoopFanout::min_value               0                       # Request fanout histogram (Count)
system.tol2bus.snoopFanout::max_value               8                       # Request fanout histogram (Count)
system.tol2bus.snoopFanout::total             5622565                       # Request fanout histogram (Count)
system.tol2bus.power_state.pwrStateResidencyTicks::UNDEFINED 764473146000                       # Cumulative time (in ticks) in various power states (Tick)
system.tol2bus.snoop_filter.totRequests       6317374                       # Total number of requests made to the snoop filter. (Count)
system.tol2bus.snoop_filter.hitSingleRequests      3010059                       # Number of requests hitting in the snoop filter with a single holder of the requested data. (Count)
system.tol2bus.snoop_filter.hitMultiRequests       315824                       # Number of requests hitting in the snoop filter with multiple (>1) holders of the requested data. (Count)
system.tol2bus.snoop_filter.totSnoops         1004174                       # Total number of snoops made to the snoop filter. (Count)
system.tol2bus.snoop_filter.hitSingleSnoops       967332                       # Number of snoops hitting in the snoop filter with a single holder of the requested data. (Count)
system.tol2bus.snoop_filter.hitMultiSnoops        36842                       # Number of snoops hitting in the snoop filter with multiple (>1) holders of the requested data. (Count)
system.voltage_domain.voltage                       1                       # Voltage in Volts (Volt)
system.workload.inst.arm                            0                       # number of arm instructions executed (Count)
system.workload.inst.quiesce                        0                       # number of quiesce instructions executed (Count)

---------- End Simulation Statistics   ----------
