
---------- Begin Simulation Statistics ----------
simSeconds                                   0.321739                       # Number of seconds simulated (Second)
simTicks                                 321738763000                       # Number of ticks simulated (Tick)
finalTick                                321738763000                       # Number of ticks from beginning of simulation (restored from checkpoints and never reset) (Tick)
simFreq                                  1000000000000                       # The number of ticks per simulated second ((Tick/Second))
hostSeconds                                  31794.18                       # Real time elapsed on the host (Second)
hostTickRate                                 10119422                       # The number of ticks simulated per host second (ticks/s) ((Tick/Second))
hostMemory                                     930488                       # Number of bytes of host memory used (Byte)
simInsts                                   2563387508                       # Number of instructions simulated (Count)
simOps                                     4023696671                       # Number of ops (including micro ops) simulated (Count)
hostInstRate                                    80624                       # Simulator instruction rate (inst/s) ((Count/Second))
hostOpRate                                     126554                       # Simulator op (including micro ops) rate (op/s) ((Count/Second))
system.clk_domain.clock                          1000                       # Clock period in ticks (Tick)
system.cpu0.numCycles                       240695060                       # Number of cpu cycles simulated (Cycle)
system.cpu0.cpi                              1.208320                       # CPI: cycles per instruction (core level) ((Cycle/Count))
system.cpu0.ipc                              0.827596                       # IPC: instructions per cycle (core level) ((Count/Cycle))
system.cpu0.numWorkItemsStarted                     0                       # Number of work items this cpu started (Count)
system.cpu0.numWorkItemsCompleted                   0                       # Number of work items this cpu completed (Count)
system.cpu0.instsAdded                      452826571                       # Number of instructions added to the IQ (excludes non-spec) (Count)
system.cpu0.nonSpecInstsAdded                 9194694                       # Number of non-speculative instructions added to the IQ (Count)
system.cpu0.instsIssued                     434839408                       # Number of instructions issued (Count)
system.cpu0.squashedInstsIssued                366451                       # Number of squashed instructions issued (Count)
system.cpu0.squashedInstsExamined           118576183                       # Number of squashed instructions iterated over during squash; mainly for profiling (Count)
system.cpu0.squashedOperandsExamined        134833410                       # Number of squashed operands that are examined and possibly removed from graph (Count)
system.cpu0.squashedNonSpecRemoved            3194075                       # Number of squashed non-spec instructions that were removed (Count)
system.cpu0.numIssuedDist::samples          240511270                       # Number of insts issued each cycle (Count)
system.cpu0.numIssuedDist::mean              1.807979                       # Number of insts issued each cycle (Count)
system.cpu0.numIssuedDist::stdev             2.129900                       # Number of insts issued each cycle (Count)
system.cpu0.numIssuedDist::underflows               0      0.00%      0.00% # Number of insts issued each cycle (Count)
system.cpu0.numIssuedDist::0                 99709045     41.46%     41.46% # Number of insts issued each cycle (Count)
system.cpu0.numIssuedDist::1                 39954662     16.61%     58.07% # Number of insts issued each cycle (Count)
system.cpu0.numIssuedDist::2                 28912860     12.02%     70.09% # Number of insts issued each cycle (Count)
system.cpu0.numIssuedDist::3                 18218969      7.58%     77.67% # Number of insts issued each cycle (Count)
system.cpu0.numIssuedDist::4                 17448158      7.25%     84.92% # Number of insts issued each cycle (Count)
system.cpu0.numIssuedDist::5                 16138994      6.71%     91.63% # Number of insts issued each cycle (Count)
system.cpu0.numIssuedDist::6                 11756984      4.89%     96.52% # Number of insts issued each cycle (Count)
system.cpu0.numIssuedDist::7                  5600171      2.33%     98.85% # Number of insts issued each cycle (Count)
system.cpu0.numIssuedDist::8                  2771427      1.15%    100.00% # Number of insts issued each cycle (Count)
system.cpu0.numIssuedDist::overflows                0      0.00%    100.00% # Number of insts issued each cycle (Count)
system.cpu0.numIssuedDist::min_value                0                       # Number of insts issued each cycle (Count)
system.cpu0.numIssuedDist::max_value                8                       # Number of insts issued each cycle (Count)
system.cpu0.numIssuedDist::total            240511270                       # Number of insts issued each cycle (Count)
system.cpu0.statFuBusy::No_OpClass                  0      0.00%      0.00% # attempts to use FU when none available (Count)
system.cpu0.statFuBusy::IntAlu                1874779     13.21%     13.21% # attempts to use FU when none available (Count)
system.cpu0.statFuBusy::IntMult                     0      0.00%     13.21% # attempts to use FU when none available (Count)
system.cpu0.statFuBusy::IntDiv                      0      0.00%     13.21% # attempts to use FU when none available (Count)
system.cpu0.statFuBusy::FloatAdd                    0      0.00%     13.21% # attempts to use FU when none available (Count)
system.cpu0.statFuBusy::FloatCmp                    0      0.00%     13.21% # attempts to use FU when none available (Count)
system.cpu0.statFuBusy::FloatCvt                    0      0.00%     13.21% # attempts to use FU when none available (Count)
system.cpu0.statFuBusy::FloatMult                   0      0.00%     13.21% # attempts to use FU when none available (Count)
system.cpu0.statFuBusy::FloatMultAcc                0      0.00%     13.21% # attempts to use FU when none available (Count)
system.cpu0.statFuBusy::FloatDiv                    0      0.00%     13.21% # attempts to use FU when none available (Count)
system.cpu0.statFuBusy::FloatMisc                   0      0.00%     13.21% # attempts to use FU when none available (Count)
system.cpu0.statFuBusy::FloatSqrt                   0      0.00%     13.21% # attempts to use FU when none available (Count)
system.cpu0.statFuBusy::SimdAdd                     0      0.00%     13.21% # attempts to use FU when none available (Count)
system.cpu0.statFuBusy::SimdAddAcc                  0      0.00%     13.21% # attempts to use FU when none available (Count)
system.cpu0.statFuBusy::SimdAlu                   115      0.00%     13.21% # attempts to use FU when none available (Count)
system.cpu0.statFuBusy::SimdCmp                     0      0.00%     13.21% # attempts to use FU when none available (Count)
system.cpu0.statFuBusy::SimdCvt                     6      0.00%     13.21% # attempts to use FU when none available (Count)
system.cpu0.statFuBusy::SimdMisc                   10      0.00%     13.21% # attempts to use FU when none available (Count)
system.cpu0.statFuBusy::SimdMult                    0      0.00%     13.21% # attempts to use FU when none available (Count)
system.cpu0.statFuBusy::SimdMultAcc                 0      0.00%     13.21% # attempts to use FU when none available (Count)
system.cpu0.statFuBusy::SimdMatMultAcc              0      0.00%     13.21% # attempts to use FU when none available (Count)
system.cpu0.statFuBusy::SimdShift                   0      0.00%     13.21% # attempts to use FU when none available (Count)
system.cpu0.statFuBusy::SimdShiftAcc                0      0.00%     13.21% # attempts to use FU when none available (Count)
system.cpu0.statFuBusy::SimdDiv                     0      0.00%     13.21% # attempts to use FU when none available (Count)
system.cpu0.statFuBusy::SimdSqrt                    0      0.00%     13.21% # attempts to use FU when none available (Count)
system.cpu0.statFuBusy::SimdFloatAdd                1      0.00%     13.21% # attempts to use FU when none available (Count)
system.cpu0.statFuBusy::SimdFloatAlu                0      0.00%     13.21% # attempts to use FU when none available (Count)
system.cpu0.statFuBusy::SimdFloatCmp                0      0.00%     13.21% # attempts to use FU when none available (Count)
system.cpu0.statFuBusy::SimdFloatCvt                0      0.00%     13.21% # attempts to use FU when none available (Count)
system.cpu0.statFuBusy::SimdFloatDiv                0      0.00%     13.21% # attempts to use FU when none available (Count)
system.cpu0.statFuBusy::SimdFloatMisc               0      0.00%     13.21% # attempts to use FU when none available (Count)
system.cpu0.statFuBusy::SimdFloatMult               0      0.00%     13.21% # attempts to use FU when none available (Count)
system.cpu0.statFuBusy::SimdFloatMultAcc            0      0.00%     13.21% # attempts to use FU when none available (Count)
system.cpu0.statFuBusy::SimdFloatMatMultAcc            0      0.00%     13.21% # attempts to use FU when none available (Count)
system.cpu0.statFuBusy::SimdFloatSqrt               0      0.00%     13.21% # attempts to use FU when none available (Count)
system.cpu0.statFuBusy::SimdReduceAdd               0      0.00%     13.21% # attempts to use FU when none available (Count)
system.cpu0.statFuBusy::SimdReduceAlu               0      0.00%     13.21% # attempts to use FU when none available (Count)
system.cpu0.statFuBusy::SimdReduceCmp               0      0.00%     13.21% # attempts to use FU when none available (Count)
system.cpu0.statFuBusy::SimdFloatReduceAdd            0      0.00%     13.21% # attempts to use FU when none available (Count)
system.cpu0.statFuBusy::SimdFloatReduceCmp            0      0.00%     13.21% # attempts to use FU when none available (Count)
system.cpu0.statFuBusy::SimdAes                     0      0.00%     13.21% # attempts to use FU when none available (Count)
system.cpu0.statFuBusy::SimdAesMix                  0      0.00%     13.21% # attempts to use FU when none available (Count)
system.cpu0.statFuBusy::SimdSha1Hash                0      0.00%     13.21% # attempts to use FU when none available (Count)
system.cpu0.statFuBusy::SimdSha1Hash2               0      0.00%     13.21% # attempts to use FU when none available (Count)
system.cpu0.statFuBusy::SimdSha256Hash              0      0.00%     13.21% # attempts to use FU when none available (Count)
system.cpu0.statFuBusy::SimdSha256Hash2             0      0.00%     13.21% # attempts to use FU when none available (Count)
system.cpu0.statFuBusy::SimdShaSigma2               0      0.00%     13.21% # attempts to use FU when none available (Count)
system.cpu0.statFuBusy::SimdShaSigma3               0      0.00%     13.21% # attempts to use FU when none available (Count)
system.cpu0.statFuBusy::SimdPredAlu                 0      0.00%     13.21% # attempts to use FU when none available (Count)
system.cpu0.statFuBusy::Matrix                      0      0.00%     13.21% # attempts to use FU when none available (Count)
system.cpu0.statFuBusy::MatrixMov                   0      0.00%     13.21% # attempts to use FU when none available (Count)
system.cpu0.statFuBusy::MatrixOP                    0      0.00%     13.21% # attempts to use FU when none available (Count)
system.cpu0.statFuBusy::MemRead               4201845     29.60%     42.81% # attempts to use FU when none available (Count)
system.cpu0.statFuBusy::MemWrite              4896207     34.49%     77.30% # attempts to use FU when none available (Count)
system.cpu0.statFuBusy::FloatMemRead          1466639     10.33%     87.64% # attempts to use FU when none available (Count)
system.cpu0.statFuBusy::FloatMemWrite         1754797     12.36%    100.00% # attempts to use FU when none available (Count)
system.cpu0.statFuBusy::IprAccess                   0      0.00%    100.00% # attempts to use FU when none available (Count)
system.cpu0.statFuBusy::InstPrefetch                0      0.00%    100.00% # attempts to use FU when none available (Count)
system.cpu0.statFuBusy::SimdUnitStrideLoad            0      0.00%    100.00% # attempts to use FU when none available (Count)
system.cpu0.statFuBusy::SimdUnitStrideStore            0      0.00%    100.00% # attempts to use FU when none available (Count)
system.cpu0.statFuBusy::SimdUnitStrideMaskLoad            0      0.00%    100.00% # attempts to use FU when none available (Count)
system.cpu0.statFuBusy::SimdUnitStrideMaskStore            0      0.00%    100.00% # attempts to use FU when none available (Count)
system.cpu0.statFuBusy::SimdStridedLoad             0      0.00%    100.00% # attempts to use FU when none available (Count)
system.cpu0.statFuBusy::SimdStridedStore            0      0.00%    100.00% # attempts to use FU when none available (Count)
system.cpu0.statFuBusy::SimdIndexedLoad             0      0.00%    100.00% # attempts to use FU when none available (Count)
system.cpu0.statFuBusy::SimdIndexedStore            0      0.00%    100.00% # attempts to use FU when none available (Count)
system.cpu0.statFuBusy::SimdWholeRegisterLoad            0      0.00%    100.00% # attempts to use FU when none available (Count)
system.cpu0.statFuBusy::SimdWholeRegisterStore            0      0.00%    100.00% # attempts to use FU when none available (Count)
system.cpu0.statFuBusy::SimdUnitStrideFaultOnlyFirstLoad            0      0.00%    100.00% # attempts to use FU when none available (Count)
system.cpu0.statFuBusy::SimdUnitStrideSegmentedLoad            0      0.00%    100.00% # attempts to use FU when none available (Count)
system.cpu0.statFuBusy::SimdUnitStrideSegmentedStore            0      0.00%    100.00% # attempts to use FU when none available (Count)
system.cpu0.statFuBusy::SimdUnitStrideSegmentedFaultOnlyFirstLoad            0      0.00%    100.00% # attempts to use FU when none available (Count)
system.cpu0.statFuBusy::SimdStrideSegmentedLoad            0      0.00%    100.00% # attempts to use FU when none available (Count)
system.cpu0.statFuBusy::SimdStrideSegmentedStore            0      0.00%    100.00% # attempts to use FU when none available (Count)
system.cpu0.statFuBusy::SimdExt                     0      0.00%    100.00% # attempts to use FU when none available (Count)
system.cpu0.statFuBusy::SimdFloatExt                0      0.00%    100.00% # attempts to use FU when none available (Count)
system.cpu0.statFuBusy::SimdConfig                  0      0.00%    100.00% # attempts to use FU when none available (Count)
system.cpu0.statIssuedInstType_0::No_OpClass     14094483      3.24%      3.24% # Number of instructions issued per FU type, per thread (Count)
system.cpu0.statIssuedInstType_0::IntAlu    275804060     63.43%     66.67% # Number of instructions issued per FU type, per thread (Count)
system.cpu0.statIssuedInstType_0::IntMult      2000175      0.46%     67.13% # Number of instructions issued per FU type, per thread (Count)
system.cpu0.statIssuedInstType_0::IntDiv           87      0.00%     67.13% # Number of instructions issued per FU type, per thread (Count)
system.cpu0.statIssuedInstType_0::FloatAdd      2130847      0.49%     67.62% # Number of instructions issued per FU type, per thread (Count)
system.cpu0.statIssuedInstType_0::FloatCmp            0      0.00%     67.62% # Number of instructions issued per FU type, per thread (Count)
system.cpu0.statIssuedInstType_0::FloatCvt            0      0.00%     67.62% # Number of instructions issued per FU type, per thread (Count)
system.cpu0.statIssuedInstType_0::FloatMult            0      0.00%     67.62% # Number of instructions issued per FU type, per thread (Count)
system.cpu0.statIssuedInstType_0::FloatMultAcc            0      0.00%     67.62% # Number of instructions issued per FU type, per thread (Count)
system.cpu0.statIssuedInstType_0::FloatDiv            0      0.00%     67.62% # Number of instructions issued per FU type, per thread (Count)
system.cpu0.statIssuedInstType_0::FloatMisc            0      0.00%     67.62% # Number of instructions issued per FU type, per thread (Count)
system.cpu0.statIssuedInstType_0::FloatSqrt            0      0.00%     67.62% # Number of instructions issued per FU type, per thread (Count)
system.cpu0.statIssuedInstType_0::SimdAdd           28      0.00%     67.62% # Number of instructions issued per FU type, per thread (Count)
system.cpu0.statIssuedInstType_0::SimdAddAcc            0      0.00%     67.62% # Number of instructions issued per FU type, per thread (Count)
system.cpu0.statIssuedInstType_0::SimdAlu         1136      0.00%     67.62% # Number of instructions issued per FU type, per thread (Count)
system.cpu0.statIssuedInstType_0::SimdCmp            6      0.00%     67.62% # Number of instructions issued per FU type, per thread (Count)
system.cpu0.statIssuedInstType_0::SimdCvt          518      0.00%     67.62% # Number of instructions issued per FU type, per thread (Count)
system.cpu0.statIssuedInstType_0::SimdMisc      2131569      0.49%     68.11% # Number of instructions issued per FU type, per thread (Count)
system.cpu0.statIssuedInstType_0::SimdMult            0      0.00%     68.11% # Number of instructions issued per FU type, per thread (Count)
system.cpu0.statIssuedInstType_0::SimdMultAcc            0      0.00%     68.11% # Number of instructions issued per FU type, per thread (Count)
system.cpu0.statIssuedInstType_0::SimdMatMultAcc            0      0.00%     68.11% # Number of instructions issued per FU type, per thread (Count)
system.cpu0.statIssuedInstType_0::SimdShift            0      0.00%     68.11% # Number of instructions issued per FU type, per thread (Count)
system.cpu0.statIssuedInstType_0::SimdShiftAcc            0      0.00%     68.11% # Number of instructions issued per FU type, per thread (Count)
system.cpu0.statIssuedInstType_0::SimdDiv            0      0.00%     68.11% # Number of instructions issued per FU type, per thread (Count)
system.cpu0.statIssuedInstType_0::SimdSqrt            0      0.00%     68.11% # Number of instructions issued per FU type, per thread (Count)
system.cpu0.statIssuedInstType_0::SimdFloatAdd           19      0.00%     68.11% # Number of instructions issued per FU type, per thread (Count)
system.cpu0.statIssuedInstType_0::SimdFloatAlu            0      0.00%     68.11% # Number of instructions issued per FU type, per thread (Count)
system.cpu0.statIssuedInstType_0::SimdFloatCmp            0      0.00%     68.11% # Number of instructions issued per FU type, per thread (Count)
system.cpu0.statIssuedInstType_0::SimdFloatCvt            9      0.00%     68.11% # Number of instructions issued per FU type, per thread (Count)
system.cpu0.statIssuedInstType_0::SimdFloatDiv            2      0.00%     68.11% # Number of instructions issued per FU type, per thread (Count)
system.cpu0.statIssuedInstType_0::SimdFloatMisc            0      0.00%     68.11% # Number of instructions issued per FU type, per thread (Count)
system.cpu0.statIssuedInstType_0::SimdFloatMult           12      0.00%     68.11% # Number of instructions issued per FU type, per thread (Count)
system.cpu0.statIssuedInstType_0::SimdFloatMultAcc            0      0.00%     68.11% # Number of instructions issued per FU type, per thread (Count)
system.cpu0.statIssuedInstType_0::SimdFloatMatMultAcc            0      0.00%     68.11% # Number of instructions issued per FU type, per thread (Count)
system.cpu0.statIssuedInstType_0::SimdFloatSqrt            0      0.00%     68.11% # Number of instructions issued per FU type, per thread (Count)
system.cpu0.statIssuedInstType_0::SimdReduceAdd            0      0.00%     68.11% # Number of instructions issued per FU type, per thread (Count)
system.cpu0.statIssuedInstType_0::SimdReduceAlu            0      0.00%     68.11% # Number of instructions issued per FU type, per thread (Count)
system.cpu0.statIssuedInstType_0::SimdReduceCmp            0      0.00%     68.11% # Number of instructions issued per FU type, per thread (Count)
system.cpu0.statIssuedInstType_0::SimdFloatReduceAdd            0      0.00%     68.11% # Number of instructions issued per FU type, per thread (Count)
system.cpu0.statIssuedInstType_0::SimdFloatReduceCmp            0      0.00%     68.11% # Number of instructions issued per FU type, per thread (Count)
system.cpu0.statIssuedInstType_0::SimdAes            0      0.00%     68.11% # Number of instructions issued per FU type, per thread (Count)
system.cpu0.statIssuedInstType_0::SimdAesMix            0      0.00%     68.11% # Number of instructions issued per FU type, per thread (Count)
system.cpu0.statIssuedInstType_0::SimdSha1Hash            0      0.00%     68.11% # Number of instructions issued per FU type, per thread (Count)
system.cpu0.statIssuedInstType_0::SimdSha1Hash2            0      0.00%     68.11% # Number of instructions issued per FU type, per thread (Count)
system.cpu0.statIssuedInstType_0::SimdSha256Hash            0      0.00%     68.11% # Number of instructions issued per FU type, per thread (Count)
system.cpu0.statIssuedInstType_0::SimdSha256Hash2            0      0.00%     68.11% # Number of instructions issued per FU type, per thread (Count)
system.cpu0.statIssuedInstType_0::SimdShaSigma2            0      0.00%     68.11% # Number of instructions issued per FU type, per thread (Count)
system.cpu0.statIssuedInstType_0::SimdShaSigma3            0      0.00%     68.11% # Number of instructions issued per FU type, per thread (Count)
system.cpu0.statIssuedInstType_0::SimdPredAlu            0      0.00%     68.11% # Number of instructions issued per FU type, per thread (Count)
system.cpu0.statIssuedInstType_0::Matrix            0      0.00%     68.11% # Number of instructions issued per FU type, per thread (Count)
system.cpu0.statIssuedInstType_0::MatrixMov            0      0.00%     68.11% # Number of instructions issued per FU type, per thread (Count)
system.cpu0.statIssuedInstType_0::MatrixOP            0      0.00%     68.11% # Number of instructions issued per FU type, per thread (Count)
system.cpu0.statIssuedInstType_0::MemRead     79553270     18.29%     86.40% # Number of instructions issued per FU type, per thread (Count)
system.cpu0.statIssuedInstType_0::MemWrite     45405217     10.44%     96.85% # Number of instructions issued per FU type, per thread (Count)
system.cpu0.statIssuedInstType_0::FloatMemRead      6111548      1.41%     98.25% # Number of instructions issued per FU type, per thread (Count)
system.cpu0.statIssuedInstType_0::FloatMemWrite      7606422      1.75%    100.00% # Number of instructions issued per FU type, per thread (Count)
system.cpu0.statIssuedInstType_0::IprAccess            0      0.00%    100.00% # Number of instructions issued per FU type, per thread (Count)
system.cpu0.statIssuedInstType_0::InstPrefetch            0      0.00%    100.00% # Number of instructions issued per FU type, per thread (Count)
system.cpu0.statIssuedInstType_0::SimdUnitStrideLoad            0      0.00%    100.00% # Number of instructions issued per FU type, per thread (Count)
system.cpu0.statIssuedInstType_0::SimdUnitStrideStore            0      0.00%    100.00% # Number of instructions issued per FU type, per thread (Count)
system.cpu0.statIssuedInstType_0::SimdUnitStrideMaskLoad            0      0.00%    100.00% # Number of instructions issued per FU type, per thread (Count)
system.cpu0.statIssuedInstType_0::SimdUnitStrideMaskStore            0      0.00%    100.00% # Number of instructions issued per FU type, per thread (Count)
system.cpu0.statIssuedInstType_0::SimdStridedLoad            0      0.00%    100.00% # Number of instructions issued per FU type, per thread (Count)
system.cpu0.statIssuedInstType_0::SimdStridedStore            0      0.00%    100.00% # Number of instructions issued per FU type, per thread (Count)
system.cpu0.statIssuedInstType_0::SimdIndexedLoad            0      0.00%    100.00% # Number of instructions issued per FU type, per thread (Count)
system.cpu0.statIssuedInstType_0::SimdIndexedStore            0      0.00%    100.00% # Number of instructions issued per FU type, per thread (Count)
system.cpu0.statIssuedInstType_0::SimdWholeRegisterLoad            0      0.00%    100.00% # Number of instructions issued per FU type, per thread (Count)
system.cpu0.statIssuedInstType_0::SimdWholeRegisterStore            0      0.00%    100.00% # Number of instructions issued per FU type, per thread (Count)
system.cpu0.statIssuedInstType_0::SimdUnitStrideFaultOnlyFirstLoad            0      0.00%    100.00% # Number of instructions issued per FU type, per thread (Count)
system.cpu0.statIssuedInstType_0::SimdUnitStrideSegmentedLoad            0      0.00%    100.00% # Number of instructions issued per FU type, per thread (Count)
system.cpu0.statIssuedInstType_0::SimdUnitStrideSegmentedStore            0      0.00%    100.00% # Number of instructions issued per FU type, per thread (Count)
system.cpu0.statIssuedInstType_0::SimdUnitStrideSegmentedFaultOnlyFirstLoad            0      0.00%    100.00% # Number of instructions issued per FU type, per thread (Count)
system.cpu0.statIssuedInstType_0::SimdStrideSegmentedLoad            0      0.00%    100.00% # Number of instructions issued per FU type, per thread (Count)
system.cpu0.statIssuedInstType_0::SimdStrideSegmentedStore            0      0.00%    100.00% # Number of instructions issued per FU type, per thread (Count)
system.cpu0.statIssuedInstType_0::SimdExt            0      0.00%    100.00% # Number of instructions issued per FU type, per thread (Count)
system.cpu0.statIssuedInstType_0::SimdFloatExt            0      0.00%    100.00% # Number of instructions issued per FU type, per thread (Count)
system.cpu0.statIssuedInstType_0::SimdConfig            0      0.00%    100.00% # Number of instructions issued per FU type, per thread (Count)
system.cpu0.statIssuedInstType_0::total     434839408                       # Number of instructions issued per FU type, per thread (Count)
system.cpu0.issueRate                        1.806599                       # Inst issue rate ((Count/Cycle))
system.cpu0.fuBusy                           14194399                       # FU busy when requested (Count)
system.cpu0.fuBusyRate                       0.032643                       # FU busy rate (busy events/executed inst) ((Count/Count))
system.cpu0.intInstQueueReads              1083067902                       # Number of integer instruction queue reads (Count)
system.cpu0.intInstQueueWrites              553115651                       # Number of integer instruction queue writes (Count)
system.cpu0.intInstQueueWakeupAccesses      410344530                       # Number of integer instruction queue wakeup accesses (Count)
system.cpu0.fpInstQueueReads                 41683034                       # Number of floating instruction queue reads (Count)
system.cpu0.fpInstQueueWrites                29417400                       # Number of floating instruction queue writes (Count)
system.cpu0.fpInstQueueWakeupAccesses        16962620                       # Number of floating instruction queue wakeup accesses (Count)
system.cpu0.vecInstQueueReads                       0                       # Number of vector instruction queue reads (Count)
system.cpu0.vecInstQueueWrites                      0                       # Number of vector instruction queue writes (Count)
system.cpu0.vecInstQueueWakeupAccesses              0                       # Number of vector instruction queue wakeup accesses (Count)
system.cpu0.intAluAccesses                  412670029                       # Number of integer alu accesses (Count)
system.cpu0.fpAluAccesses                    22269295                       # Number of floating point alu accesses (Count)
system.cpu0.vecAluAccesses                          0                       # Number of vector alu accesses (Count)
system.cpu0.numRecvResp                      92498545                       # Number of received responses (Count)
system.cpu0.numRecvRespBytes                611479414                       # Number of received response bytes (Byte)
system.cpu0.recvRespAvgBW                        2.54                       # Average bandwidth of received responses ((Byte/Cycle))
system.cpu0.recvRespAvgSize                      6.61                       # Average packet size per received response ((Byte/Count))
system.cpu0.recvRespAvgRate                      0.38                       # Average rate of received responses per cycle ((Count/Cycle))
system.cpu0.recvRespAvgRetryRate                 0.00                       # Average retry rate per received response ((Count/Count))
system.cpu0.numSendRetryResp                        0                       # Number of retry responses sent (Count)
system.cpu0.numSquashedInsts                  2457949                       # Number of squashed instructions skipped in execute (Count)
system.cpu0.numSwp                                  0                       # Number of swp insts executed (Count)
system.cpu0.timesIdled                           1556                       # Number of times that the entire CPU went into an idle state and unscheduled itself (Count)
system.cpu0.idleCycles                         183790                       # Total number of cycles that the CPU has spent unscheduled due to idling (Cycle)
system.cpu0.quiesceCycles                   402782467                       # Total number of cycles that CPU has spent quiesced or waiting for an interrupt (Cycle)
system.cpu0.MemDepUnit__0.insertedLoads      93702566                       # Number of loads inserted to the mem dependence unit. (Count)
system.cpu0.MemDepUnit__0.insertedStores     56777331                       # Number of stores inserted to the mem dependence unit. (Count)
system.cpu0.MemDepUnit__0.conflictingLoads     46663198                       # Number of conflicting loads. (Count)
system.cpu0.MemDepUnit__0.conflictingStores     21859392                       # Number of conflicting stores. (Count)
system.cpu0.MemDepUnit__1.insertedLoads             0                       # Number of loads inserted to the mem dependence unit. (Count)
system.cpu0.MemDepUnit__1.insertedStores            0                       # Number of stores inserted to the mem dependence unit. (Count)
system.cpu0.MemDepUnit__1.conflictingLoads            0                       # Number of conflicting loads. (Count)
system.cpu0.MemDepUnit__1.conflictingStores            0                       # Number of conflicting stores. (Count)
system.cpu0.MemDepUnit__2.insertedLoads             0                       # Number of loads inserted to the mem dependence unit. (Count)
system.cpu0.MemDepUnit__2.insertedStores            0                       # Number of stores inserted to the mem dependence unit. (Count)
system.cpu0.MemDepUnit__2.conflictingLoads            0                       # Number of conflicting loads. (Count)
system.cpu0.MemDepUnit__2.conflictingStores            0                       # Number of conflicting stores. (Count)
system.cpu0.MemDepUnit__3.insertedLoads             0                       # Number of loads inserted to the mem dependence unit. (Count)
system.cpu0.MemDepUnit__3.insertedStores            0                       # Number of stores inserted to the mem dependence unit. (Count)
system.cpu0.MemDepUnit__3.conflictingLoads            0                       # Number of conflicting loads. (Count)
system.cpu0.MemDepUnit__3.conflictingStores            0                       # Number of conflicting stores. (Count)
system.cpu0.branchPred.lookups_0::NoBranch            0      0.00%      0.00% # Number of BP lookups (Count)
system.cpu0.branchPred.lookups_0::Return     10665575     21.97%     21.97% # Number of BP lookups (Count)
system.cpu0.branchPred.lookups_0::CallDirect     11663693     24.03%     46.00% # Number of BP lookups (Count)
system.cpu0.branchPred.lookups_0::CallIndirect          510      0.00%     46.00% # Number of BP lookups (Count)
system.cpu0.branchPred.lookups_0::DirectCond     23611464     48.64%     94.65% # Number of BP lookups (Count)
system.cpu0.branchPred.lookups_0::DirectUncond      2597773      5.35%    100.00% # Number of BP lookups (Count)
system.cpu0.branchPred.lookups_0::IndirectCond            0      0.00%    100.00% # Number of BP lookups (Count)
system.cpu0.branchPred.lookups_0::IndirectUncond         1040      0.00%    100.00% # Number of BP lookups (Count)
system.cpu0.branchPred.lookups_0::total      48540055                       # Number of BP lookups (Count)
system.cpu0.branchPred.squashes_0::NoBranch            0      0.00%      0.00% # Number of branches that got squashed (completely removed) as an earlier branch was mispredicted. (Count)
system.cpu0.branchPred.squashes_0::Return      2663525     16.16%     16.16% # Number of branches that got squashed (completely removed) as an earlier branch was mispredicted. (Count)
system.cpu0.branchPred.squashes_0::CallDirect      3661930     22.22%     38.37% # Number of branches that got squashed (completely removed) as an earlier branch was mispredicted. (Count)
system.cpu0.branchPred.squashes_0::CallIndirect          218      0.00%     38.38% # Number of branches that got squashed (completely removed) as an earlier branch was mispredicted. (Count)
system.cpu0.branchPred.squashes_0::DirectCond      8995410     54.57%     92.95% # Number of branches that got squashed (completely removed) as an earlier branch was mispredicted. (Count)
system.cpu0.branchPred.squashes_0::DirectUncond      1161692      7.05%    100.00% # Number of branches that got squashed (completely removed) as an earlier branch was mispredicted. (Count)
system.cpu0.branchPred.squashes_0::IndirectCond            0      0.00%    100.00% # Number of branches that got squashed (completely removed) as an earlier branch was mispredicted. (Count)
system.cpu0.branchPred.squashes_0::IndirectUncond          737      0.00%    100.00% # Number of branches that got squashed (completely removed) as an earlier branch was mispredicted. (Count)
system.cpu0.branchPred.squashes_0::total     16483512                       # Number of branches that got squashed (completely removed) as an earlier branch was mispredicted. (Count)
system.cpu0.branchPred.corrected_0::NoBranch            0      0.00%      0.00% # Number of branches that got corrected but not yet commited. Branches get corrected by decode or after execute. Also a branch misprediction can be detected out-of-order. Therefore, a corrected branch might not end up beeing committed in case an even earlier branch was mispredicted (Count)
system.cpu0.branchPred.corrected_0::Return            8      0.00%      0.00% # Number of branches that got corrected but not yet commited. Branches get corrected by decode or after execute. Also a branch misprediction can be detected out-of-order. Therefore, a corrected branch might not end up beeing committed in case an even earlier branch was mispredicted (Count)
system.cpu0.branchPred.corrected_0::CallDirect          730      0.26%      0.27% # Number of branches that got corrected but not yet commited. Branches get corrected by decode or after execute. Also a branch misprediction can be detected out-of-order. Therefore, a corrected branch might not end up beeing committed in case an even earlier branch was mispredicted (Count)
system.cpu0.branchPred.corrected_0::CallIndirect          132      0.05%      0.32% # Number of branches that got corrected but not yet commited. Branches get corrected by decode or after execute. Also a branch misprediction can be detected out-of-order. Therefore, a corrected branch might not end up beeing committed in case an even earlier branch was mispredicted (Count)
system.cpu0.branchPred.corrected_0::DirectCond       274581     99.50%     99.82% # Number of branches that got corrected but not yet commited. Branches get corrected by decode or after execute. Also a branch misprediction can be detected out-of-order. Therefore, a corrected branch might not end up beeing committed in case an even earlier branch was mispredicted (Count)
system.cpu0.branchPred.corrected_0::DirectUncond          335      0.12%     99.94% # Number of branches that got corrected but not yet commited. Branches get corrected by decode or after execute. Also a branch misprediction can be detected out-of-order. Therefore, a corrected branch might not end up beeing committed in case an even earlier branch was mispredicted (Count)
system.cpu0.branchPred.corrected_0::IndirectCond            0      0.00%     99.94% # Number of branches that got corrected but not yet commited. Branches get corrected by decode or after execute. Also a branch misprediction can be detected out-of-order. Therefore, a corrected branch might not end up beeing committed in case an even earlier branch was mispredicted (Count)
system.cpu0.branchPred.corrected_0::IndirectUncond          164      0.06%    100.00% # Number of branches that got corrected but not yet commited. Branches get corrected by decode or after execute. Also a branch misprediction can be detected out-of-order. Therefore, a corrected branch might not end up beeing committed in case an even earlier branch was mispredicted (Count)
system.cpu0.branchPred.corrected_0::total       275950                       # Number of branches that got corrected but not yet commited. Branches get corrected by decode or after execute. Also a branch misprediction can be detected out-of-order. Therefore, a corrected branch might not end up beeing committed in case an even earlier branch was mispredicted (Count)
system.cpu0.branchPred.earlyResteers_0::NoBranch            0                       # Number of branches that got redirected after decode. (Count)
system.cpu0.branchPred.earlyResteers_0::Return            0                       # Number of branches that got redirected after decode. (Count)
system.cpu0.branchPred.earlyResteers_0::CallDirect            0                       # Number of branches that got redirected after decode. (Count)
system.cpu0.branchPred.earlyResteers_0::CallIndirect            0                       # Number of branches that got redirected after decode. (Count)
system.cpu0.branchPred.earlyResteers_0::DirectCond            0                       # Number of branches that got redirected after decode. (Count)
system.cpu0.branchPred.earlyResteers_0::DirectUncond            0                       # Number of branches that got redirected after decode. (Count)
system.cpu0.branchPred.earlyResteers_0::IndirectCond            0                       # Number of branches that got redirected after decode. (Count)
system.cpu0.branchPred.earlyResteers_0::IndirectUncond            0                       # Number of branches that got redirected after decode. (Count)
system.cpu0.branchPred.earlyResteers_0::total            0                       # Number of branches that got redirected after decode. (Count)
system.cpu0.branchPred.committed_0::NoBranch            0      0.00%      0.00% # Number of branches finally committed  (Count)
system.cpu0.branchPred.committed_0::Return      8002050     24.96%     24.96% # Number of branches finally committed  (Count)
system.cpu0.branchPred.committed_0::CallDirect      8001763     24.96%     49.92% # Number of branches finally committed  (Count)
system.cpu0.branchPred.committed_0::CallIndirect          292      0.00%     49.92% # Number of branches finally committed  (Count)
system.cpu0.branchPred.committed_0::DirectCond     14616048     45.59%     95.52% # Number of branches finally committed  (Count)
system.cpu0.branchPred.committed_0::DirectUncond      1436081      4.48%    100.00% # Number of branches finally committed  (Count)
system.cpu0.branchPred.committed_0::IndirectCond            0      0.00%    100.00% # Number of branches finally committed  (Count)
system.cpu0.branchPred.committed_0::IndirectUncond          303      0.00%    100.00% # Number of branches finally committed  (Count)
system.cpu0.branchPred.committed_0::total     32056537                       # Number of branches finally committed  (Count)
system.cpu0.branchPred.mispredicted_0::NoBranch            0      0.00%      0.00% # Number of committed branches that were mispredicted. (Count)
system.cpu0.branchPred.mispredicted_0::Return            0      0.00%      0.00% # Number of committed branches that were mispredicted. (Count)
system.cpu0.branchPred.mispredicted_0::CallDirect          506      0.18%      0.18% # Number of committed branches that were mispredicted. (Count)
system.cpu0.branchPred.mispredicted_0::CallIndirect          128      0.05%      0.23% # Number of committed branches that were mispredicted. (Count)
system.cpu0.branchPred.mispredicted_0::DirectCond       274335     99.66%     99.89% # Number of committed branches that were mispredicted. (Count)
system.cpu0.branchPred.mispredicted_0::DirectUncond          181      0.07%     99.95% # Number of committed branches that were mispredicted. (Count)
system.cpu0.branchPred.mispredicted_0::IndirectCond            0      0.00%     99.95% # Number of committed branches that were mispredicted. (Count)
system.cpu0.branchPred.mispredicted_0::IndirectUncond          128      0.05%    100.00% # Number of committed branches that were mispredicted. (Count)
system.cpu0.branchPred.mispredicted_0::total       275278                       # Number of committed branches that were mispredicted. (Count)
system.cpu0.branchPred.mispredictDueToPredictor_0::NoBranch            0      0.00%      0.00% # Number of committed branches that were mispredicted by the predictor. (Count)
system.cpu0.branchPred.mispredictDueToPredictor_0::Return            0      0.00%      0.00% # Number of committed branches that were mispredicted by the predictor. (Count)
system.cpu0.branchPred.mispredictDueToPredictor_0::CallDirect            0      0.00%      0.00% # Number of committed branches that were mispredicted by the predictor. (Count)
system.cpu0.branchPred.mispredictDueToPredictor_0::CallIndirect            0      0.00%      0.00% # Number of committed branches that were mispredicted by the predictor. (Count)
system.cpu0.branchPred.mispredictDueToPredictor_0::DirectCond       273690    100.00%    100.00% # Number of committed branches that were mispredicted by the predictor. (Count)
system.cpu0.branchPred.mispredictDueToPredictor_0::DirectUncond            0      0.00%    100.00% # Number of committed branches that were mispredicted by the predictor. (Count)
system.cpu0.branchPred.mispredictDueToPredictor_0::IndirectCond            0      0.00%    100.00% # Number of committed branches that were mispredicted by the predictor. (Count)
system.cpu0.branchPred.mispredictDueToPredictor_0::IndirectUncond            0      0.00%    100.00% # Number of committed branches that were mispredicted by the predictor. (Count)
system.cpu0.branchPred.mispredictDueToPredictor_0::total       273690                       # Number of committed branches that were mispredicted by the predictor. (Count)
system.cpu0.branchPred.mispredictDueToBTBMiss_0::NoBranch            0      0.00%      0.00% # Number of committed branches that were mispredicted because of a BTB miss. (Count)
system.cpu0.branchPred.mispredictDueToBTBMiss_0::Return            0      0.00%      0.00% # Number of committed branches that were mispredicted because of a BTB miss. (Count)
system.cpu0.branchPred.mispredictDueToBTBMiss_0::CallDirect          506     31.86%     31.86% # Number of committed branches that were mispredicted because of a BTB miss. (Count)
system.cpu0.branchPred.mispredictDueToBTBMiss_0::CallIndirect          128      8.06%     39.92% # Number of committed branches that were mispredicted because of a BTB miss. (Count)
system.cpu0.branchPred.mispredictDueToBTBMiss_0::DirectCond          645     40.62%     80.54% # Number of committed branches that were mispredicted because of a BTB miss. (Count)
system.cpu0.branchPred.mispredictDueToBTBMiss_0::DirectUncond          181     11.40%     91.94% # Number of committed branches that were mispredicted because of a BTB miss. (Count)
system.cpu0.branchPred.mispredictDueToBTBMiss_0::IndirectCond            0      0.00%     91.94% # Number of committed branches that were mispredicted because of a BTB miss. (Count)
system.cpu0.branchPred.mispredictDueToBTBMiss_0::IndirectUncond          128      8.06%    100.00% # Number of committed branches that were mispredicted because of a BTB miss. (Count)
system.cpu0.branchPred.mispredictDueToBTBMiss_0::total         1588                       # Number of committed branches that were mispredicted because of a BTB miss. (Count)
system.cpu0.branchPred.targetProvider_0::NoTarget     13028980     26.84%     26.84% # The component providing the target for taken branches (Count)
system.cpu0.branchPred.targetProvider_0::BTB     24845026     51.18%     78.03% # The component providing the target for taken branches (Count)
system.cpu0.branchPred.targetProvider_0::RAS     10665575     21.97%    100.00% # The component providing the target for taken branches (Count)
system.cpu0.branchPred.targetProvider_0::Indirect          474      0.00%    100.00% # The component providing the target for taken branches (Count)
system.cpu0.branchPred.targetProvider_0::total     48540055                       # The component providing the target for taken branches (Count)
system.cpu0.branchPred.targetWrong_0::NoBranch       142337     51.58%     51.58% # Number of branches where the target was incorrect or not available at prediction time. (Count)
system.cpu0.branchPred.targetWrong_0::Return       133570     48.41%     99.99% # Number of branches where the target was incorrect or not available at prediction time. (Count)
system.cpu0.branchPred.targetWrong_0::CallDirect            8      0.00%     99.99% # Number of branches where the target was incorrect or not available at prediction time. (Count)
system.cpu0.branchPred.targetWrong_0::CallIndirect           22      0.01%    100.00% # Number of branches where the target was incorrect or not available at prediction time. (Count)
system.cpu0.branchPred.targetWrong_0::DirectCond            0      0.00%    100.00% # Number of branches where the target was incorrect or not available at prediction time. (Count)
system.cpu0.branchPred.targetWrong_0::DirectUncond            0      0.00%    100.00% # Number of branches where the target was incorrect or not available at prediction time. (Count)
system.cpu0.branchPred.targetWrong_0::IndirectCond            0      0.00%    100.00% # Number of branches where the target was incorrect or not available at prediction time. (Count)
system.cpu0.branchPred.targetWrong_0::IndirectUncond            0      0.00%    100.00% # Number of branches where the target was incorrect or not available at prediction time. (Count)
system.cpu0.branchPred.targetWrong_0::total       275937                       # Number of branches where the target was incorrect or not available at prediction time. (Count)
system.cpu0.branchPred.condPredicted         23611464                       # Number of conditional branches predicted (Count)
system.cpu0.branchPred.condPredictedTaken     10586439                       # Number of conditional branches predicted as taken (Count)
system.cpu0.branchPred.condIncorrect           275950                       # Number of conditional branches incorrect (Count)
system.cpu0.branchPred.predTakenBTBMiss          1320                       # Number of branches predicted taken but missed in BTB (Count)
system.cpu0.branchPred.BTBLookups            48540055                       # Number of BTB lookups (Count)
system.cpu0.branchPred.BTBUpdates              142070                       # Number of BTB updates (Count)
system.cpu0.branchPred.BTBHits               27361876                       # Number of BTB hits (Count)
system.cpu0.branchPred.BTBHitRatio           0.563697                       # BTB Hit Ratio (Ratio)
system.cpu0.branchPred.BTBMispredicted           1808                       # Number BTB mispredictions. No target found or target wrong (Count)
system.cpu0.branchPred.indirectLookups           1550                       # Number of indirect predictor lookups. (Count)
system.cpu0.branchPred.indirectHits               474                       # Number of indirect target hits. (Count)
system.cpu0.branchPred.indirectMisses            1076                       # Number of indirect misses. (Count)
system.cpu0.branchPred.indirectMispredicted            0                       # Number of mispredicted indirect branches. (Count)
system.cpu0.branchPred.btb.lookups::NoBranch            0      0.00%      0.00% # Number of BTB lookups (Count)
system.cpu0.branchPred.btb.lookups::Return     10665575     21.97%     21.97% # Number of BTB lookups (Count)
system.cpu0.branchPred.btb.lookups::CallDirect     11663693     24.03%     46.00% # Number of BTB lookups (Count)
system.cpu0.branchPred.btb.lookups::CallIndirect          510      0.00%     46.00% # Number of BTB lookups (Count)
system.cpu0.branchPred.btb.lookups::DirectCond     23611464     48.64%     94.65% # Number of BTB lookups (Count)
system.cpu0.branchPred.btb.lookups::DirectUncond      2597773      5.35%    100.00% # Number of BTB lookups (Count)
system.cpu0.branchPred.btb.lookups::IndirectCond            0      0.00%    100.00% # Number of BTB lookups (Count)
system.cpu0.branchPred.btb.lookups::IndirectUncond         1040      0.00%    100.00% # Number of BTB lookups (Count)
system.cpu0.branchPred.btb.lookups::total     48540055                       # Number of BTB lookups (Count)
system.cpu0.branchPred.btb.misses::NoBranch            0      0.00%      0.00% # Number of BTB misses (Count)
system.cpu0.branchPred.btb.misses::Return     10665575     50.36%     50.36% # Number of BTB misses (Count)
system.cpu0.branchPred.btb.misses::CallDirect         1003      0.00%     50.37% # Number of BTB misses (Count)
system.cpu0.branchPred.btb.misses::CallIndirect          510      0.00%     50.37% # Number of BTB misses (Count)
system.cpu0.branchPred.btb.misses::DirectCond     10509568     49.62%     99.99% # Number of BTB misses (Count)
system.cpu0.branchPred.btb.misses::DirectUncond          483      0.00%    100.00% # Number of BTB misses (Count)
system.cpu0.branchPred.btb.misses::IndirectCond            0      0.00%    100.00% # Number of BTB misses (Count)
system.cpu0.branchPred.btb.misses::IndirectUncond         1040      0.00%    100.00% # Number of BTB misses (Count)
system.cpu0.branchPred.btb.misses::total     21178179                       # Number of BTB misses (Count)
system.cpu0.branchPred.btb.updates::NoBranch            0      0.00%      0.00% # Number of BTB updates (Count)
system.cpu0.branchPred.btb.updates::Return            0      0.00%      0.00% # Number of BTB updates (Count)
system.cpu0.branchPred.btb.updates::CallDirect          730      0.51%      0.51% # Number of BTB updates (Count)
system.cpu0.branchPred.btb.updates::CallIndirect            0      0.00%      0.51% # Number of BTB updates (Count)
system.cpu0.branchPred.btb.updates::DirectCond       141005     99.25%     99.76% # Number of BTB updates (Count)
system.cpu0.branchPred.btb.updates::DirectUncond          335      0.24%    100.00% # Number of BTB updates (Count)
system.cpu0.branchPred.btb.updates::IndirectCond            0      0.00%    100.00% # Number of BTB updates (Count)
system.cpu0.branchPred.btb.updates::IndirectUncond            0      0.00%    100.00% # Number of BTB updates (Count)
system.cpu0.branchPred.btb.updates::total       142070                       # Number of BTB updates (Count)
system.cpu0.branchPred.btb.mispredict::NoBranch            0      0.00%      0.00% # Number of BTB mispredictions. No target found or target wrong. (Count)
system.cpu0.branchPred.btb.mispredict::Return            0      0.00%      0.00% # Number of BTB mispredictions. No target found or target wrong. (Count)
system.cpu0.branchPred.btb.mispredict::CallDirect          730      0.51%      0.51% # Number of BTB mispredictions. No target found or target wrong. (Count)
system.cpu0.branchPred.btb.mispredict::CallIndirect            0      0.00%      0.51% # Number of BTB mispredictions. No target found or target wrong. (Count)
system.cpu0.branchPred.btb.mispredict::DirectCond       141005     99.25%     99.76% # Number of BTB mispredictions. No target found or target wrong. (Count)
system.cpu0.branchPred.btb.mispredict::DirectUncond          335      0.24%    100.00% # Number of BTB mispredictions. No target found or target wrong. (Count)
system.cpu0.branchPred.btb.mispredict::IndirectCond            0      0.00%    100.00% # Number of BTB mispredictions. No target found or target wrong. (Count)
system.cpu0.branchPred.btb.mispredict::IndirectUncond            0      0.00%    100.00% # Number of BTB mispredictions. No target found or target wrong. (Count)
system.cpu0.branchPred.btb.mispredict::total       142070                       # Number of BTB mispredictions. No target found or target wrong. (Count)
system.cpu0.branchPred.btb.power_state.pwrStateResidencyTicks::UNDEFINED 321738763000                       # Cumulative time (in ticks) in various power states (Tick)
system.cpu0.branchPred.indirectBranchPred.lookups         1550                       # Number of lookups (Count)
system.cpu0.branchPred.indirectBranchPred.hits          474                       # Number of hits of a tag (Count)
system.cpu0.branchPred.indirectBranchPred.misses         1076                       # Number of misses (Count)
system.cpu0.branchPred.indirectBranchPred.targetRecords          296                       # Number of targets that where recorded/installed in the cache (Count)
system.cpu0.branchPred.indirectBranchPred.indirectRecords         1846                       # Number of indirect branches/calls recorded in the indirect hist (Count)
system.cpu0.branchPred.indirectBranchPred.speculativeOverflows            1                       # Number of times more than the allowed capacity for speculative branches/calls where in flight and destroy the path history (Count)
system.cpu0.branchPred.ras.pushes            14327728                       # Number of times a PC was pushed onto the RAS (Count)
system.cpu0.branchPred.ras.pops              14327723                       # Number of times a PC was poped from the RAS (Count)
system.cpu0.branchPred.ras.squashes           6325673                       # Number of times the stack operation was squashed due to wrong speculation. (Count)
system.cpu0.branchPred.ras.used               8002050                       # Number of times the RAS is the provider (Count)
system.cpu0.branchPred.ras.correct            8002050                       # Number of times the RAS is the provider and the prediction is correct (Count)
system.cpu0.branchPred.ras.incorrect                0                       # Number of times the RAS is the provider and the prediction is wrong (Count)
system.cpu0.commit.commitSquashedInsts      118029754                       # The number of squashed insts skipped by commit (Count)
system.cpu0.commit.commitNonSpecStalls        6000619                       # The number of times commit has been forced to stall to communicate backwards (Count)
system.cpu0.commit.branchMispredicts           274935                       # The number of times a branch was mispredicted (Count)
system.cpu0.commit.numCommittedDist::samples    225182533                       # Number of insts commited each cycle (Count)
system.cpu0.commit.numCommittedDist::mean     1.525185                       # Number of insts commited each cycle (Count)
system.cpu0.commit.numCommittedDist::stdev     2.634918                       # Number of insts commited each cycle (Count)
system.cpu0.commit.numCommittedDist::underflows            0      0.00%      0.00% # Number of insts commited each cycle (Count)
system.cpu0.commit.numCommittedDist::0      140882693     62.56%     62.56% # Number of insts commited each cycle (Count)
system.cpu0.commit.numCommittedDist::1       27675224     12.29%     74.85% # Number of insts commited each cycle (Count)
system.cpu0.commit.numCommittedDist::2        5332192      2.37%     77.22% # Number of insts commited each cycle (Count)
system.cpu0.commit.numCommittedDist::3       13586395      6.03%     83.26% # Number of insts commited each cycle (Count)
system.cpu0.commit.numCommittedDist::4        3116492      1.38%     84.64% # Number of insts commited each cycle (Count)
system.cpu0.commit.numCommittedDist::5        2368621      1.05%     85.69% # Number of insts commited each cycle (Count)
system.cpu0.commit.numCommittedDist::6        5332445      2.37%     88.06% # Number of insts commited each cycle (Count)
system.cpu0.commit.numCommittedDist::7        7065243      3.14%     91.20% # Number of insts commited each cycle (Count)
system.cpu0.commit.numCommittedDist::8       19823228      8.80%    100.00% # Number of insts commited each cycle (Count)
system.cpu0.commit.numCommittedDist::overflows            0      0.00%    100.00% # Number of insts commited each cycle (Count)
system.cpu0.commit.numCommittedDist::min_value            0                       # Number of insts commited each cycle (Count)
system.cpu0.commit.numCommittedDist::max_value            8                       # Number of insts commited each cycle (Count)
system.cpu0.commit.numCommittedDist::total    225182533                       # Number of insts commited each cycle (Count)
system.cpu0.commit.amos                             0                       # Number of atomic instructions committed (Count)
system.cpu0.commit.membars                    4000412                       # Number of memory barriers committed (Count)
system.cpu0.commit.functionCalls              8002055                       # Number of function calls committed. (Count)
system.cpu0.commit.committedInstType_0::No_OpClass      8002546      2.33%      2.33% # Class of committed instruction (Count)
system.cpu0.commit.committedInstType_0::IntAlu    219847378     64.01%     66.34% # Class of committed instruction (Count)
system.cpu0.commit.committedInstType_0::IntMult      2000168      0.58%     66.92% # Class of committed instruction (Count)
system.cpu0.commit.committedInstType_0::IntDiv           77      0.00%     66.92% # Class of committed instruction (Count)
system.cpu0.commit.committedInstType_0::FloatAdd      2001690      0.58%     67.51% # Class of committed instruction (Count)
system.cpu0.commit.committedInstType_0::FloatCmp            0      0.00%     67.51% # Class of committed instruction (Count)
system.cpu0.commit.committedInstType_0::FloatCvt            0      0.00%     67.51% # Class of committed instruction (Count)
system.cpu0.commit.committedInstType_0::FloatMult            0      0.00%     67.51% # Class of committed instruction (Count)
system.cpu0.commit.committedInstType_0::FloatMultAcc            0      0.00%     67.51% # Class of committed instruction (Count)
system.cpu0.commit.committedInstType_0::FloatDiv            0      0.00%     67.51% # Class of committed instruction (Count)
system.cpu0.commit.committedInstType_0::FloatMisc            0      0.00%     67.51% # Class of committed instruction (Count)
system.cpu0.commit.committedInstType_0::FloatSqrt            0      0.00%     67.51% # Class of committed instruction (Count)
system.cpu0.commit.committedInstType_0::SimdAdd           26      0.00%     67.51% # Class of committed instruction (Count)
system.cpu0.commit.committedInstType_0::SimdAddAcc            0      0.00%     67.51% # Class of committed instruction (Count)
system.cpu0.commit.committedInstType_0::SimdAlu         1006      0.00%     67.51% # Class of committed instruction (Count)
system.cpu0.commit.committedInstType_0::SimdCmp            6      0.00%     67.51% # Class of committed instruction (Count)
system.cpu0.commit.committedInstType_0::SimdCvt          464      0.00%     67.51% # Class of committed instruction (Count)
system.cpu0.commit.committedInstType_0::SimdMisc      2002390      0.58%     68.09% # Class of committed instruction (Count)
system.cpu0.commit.committedInstType_0::SimdMult            0      0.00%     68.09% # Class of committed instruction (Count)
system.cpu0.commit.committedInstType_0::SimdMultAcc            0      0.00%     68.09% # Class of committed instruction (Count)
system.cpu0.commit.committedInstType_0::SimdMatMultAcc            0      0.00%     68.09% # Class of committed instruction (Count)
system.cpu0.commit.committedInstType_0::SimdShift            0      0.00%     68.09% # Class of committed instruction (Count)
system.cpu0.commit.committedInstType_0::SimdShiftAcc            0      0.00%     68.09% # Class of committed instruction (Count)
system.cpu0.commit.committedInstType_0::SimdDiv            0      0.00%     68.09% # Class of committed instruction (Count)
system.cpu0.commit.committedInstType_0::SimdSqrt            0      0.00%     68.09% # Class of committed instruction (Count)
system.cpu0.commit.committedInstType_0::SimdFloatAdd           19      0.00%     68.09% # Class of committed instruction (Count)
system.cpu0.commit.committedInstType_0::SimdFloatAlu            0      0.00%     68.09% # Class of committed instruction (Count)
system.cpu0.commit.committedInstType_0::SimdFloatCmp            0      0.00%     68.09% # Class of committed instruction (Count)
system.cpu0.commit.committedInstType_0::SimdFloatCvt            9      0.00%     68.09% # Class of committed instruction (Count)
system.cpu0.commit.committedInstType_0::SimdFloatDiv            2      0.00%     68.09% # Class of committed instruction (Count)
system.cpu0.commit.committedInstType_0::SimdFloatMisc            0      0.00%     68.09% # Class of committed instruction (Count)
system.cpu0.commit.committedInstType_0::SimdFloatMult           12      0.00%     68.09% # Class of committed instruction (Count)
system.cpu0.commit.committedInstType_0::SimdFloatMultAcc            0      0.00%     68.09% # Class of committed instruction (Count)
system.cpu0.commit.committedInstType_0::SimdFloatMatMultAcc            0      0.00%     68.09% # Class of committed instruction (Count)
system.cpu0.commit.committedInstType_0::SimdFloatSqrt            0      0.00%     68.09% # Class of committed instruction (Count)
system.cpu0.commit.committedInstType_0::SimdReduceAdd            0      0.00%     68.09% # Class of committed instruction (Count)
system.cpu0.commit.committedInstType_0::SimdReduceAlu            0      0.00%     68.09% # Class of committed instruction (Count)
system.cpu0.commit.committedInstType_0::SimdReduceCmp            0      0.00%     68.09% # Class of committed instruction (Count)
system.cpu0.commit.committedInstType_0::SimdFloatReduceAdd            0      0.00%     68.09% # Class of committed instruction (Count)
system.cpu0.commit.committedInstType_0::SimdFloatReduceCmp            0      0.00%     68.09% # Class of committed instruction (Count)
system.cpu0.commit.committedInstType_0::SimdAes            0      0.00%     68.09% # Class of committed instruction (Count)
system.cpu0.commit.committedInstType_0::SimdAesMix            0      0.00%     68.09% # Class of committed instruction (Count)
system.cpu0.commit.committedInstType_0::SimdSha1Hash            0      0.00%     68.09% # Class of committed instruction (Count)
system.cpu0.commit.committedInstType_0::SimdSha1Hash2            0      0.00%     68.09% # Class of committed instruction (Count)
system.cpu0.commit.committedInstType_0::SimdSha256Hash            0      0.00%     68.09% # Class of committed instruction (Count)
system.cpu0.commit.committedInstType_0::SimdSha256Hash2            0      0.00%     68.09% # Class of committed instruction (Count)
system.cpu0.commit.committedInstType_0::SimdShaSigma2            0      0.00%     68.09% # Class of committed instruction (Count)
system.cpu0.commit.committedInstType_0::SimdShaSigma3            0      0.00%     68.09% # Class of committed instruction (Count)
system.cpu0.commit.committedInstType_0::SimdPredAlu            0      0.00%     68.09% # Class of committed instruction (Count)
system.cpu0.commit.committedInstType_0::Matrix            0      0.00%     68.09% # Class of committed instruction (Count)
system.cpu0.commit.committedInstType_0::MatrixMov            0      0.00%     68.09% # Class of committed instruction (Count)
system.cpu0.commit.committedInstType_0::MatrixOP            0      0.00%     68.09% # Class of committed instruction (Count)
system.cpu0.commit.committedInstType_0::MemRead     69322787     20.18%     88.28% # Class of committed instruction (Count)
system.cpu0.commit.committedInstType_0::MemWrite     37263276     10.85%     99.13% # Class of committed instruction (Count)
system.cpu0.commit.committedInstType_0::FloatMemRead       501010      0.15%     99.27% # Class of committed instruction (Count)
system.cpu0.commit.committedInstType_0::FloatMemWrite      2502195      0.73%    100.00% # Class of committed instruction (Count)
system.cpu0.commit.committedInstType_0::IprAccess            0      0.00%    100.00% # Class of committed instruction (Count)
system.cpu0.commit.committedInstType_0::InstPrefetch            0      0.00%    100.00% # Class of committed instruction (Count)
system.cpu0.commit.committedInstType_0::SimdUnitStrideLoad            0      0.00%    100.00% # Class of committed instruction (Count)
system.cpu0.commit.committedInstType_0::SimdUnitStrideStore            0      0.00%    100.00% # Class of committed instruction (Count)
system.cpu0.commit.committedInstType_0::SimdUnitStrideMaskLoad            0      0.00%    100.00% # Class of committed instruction (Count)
system.cpu0.commit.committedInstType_0::SimdUnitStrideMaskStore            0      0.00%    100.00% # Class of committed instruction (Count)
system.cpu0.commit.committedInstType_0::SimdStridedLoad            0      0.00%    100.00% # Class of committed instruction (Count)
system.cpu0.commit.committedInstType_0::SimdStridedStore            0      0.00%    100.00% # Class of committed instruction (Count)
system.cpu0.commit.committedInstType_0::SimdIndexedLoad            0      0.00%    100.00% # Class of committed instruction (Count)
system.cpu0.commit.committedInstType_0::SimdIndexedStore            0      0.00%    100.00% # Class of committed instruction (Count)
system.cpu0.commit.committedInstType_0::SimdWholeRegisterLoad            0      0.00%    100.00% # Class of committed instruction (Count)
system.cpu0.commit.committedInstType_0::SimdWholeRegisterStore            0      0.00%    100.00% # Class of committed instruction (Count)
system.cpu0.commit.committedInstType_0::SimdUnitStrideFaultOnlyFirstLoad            0      0.00%    100.00% # Class of committed instruction (Count)
system.cpu0.commit.committedInstType_0::SimdUnitStrideSegmentedLoad            0      0.00%    100.00% # Class of committed instruction (Count)
system.cpu0.commit.committedInstType_0::SimdUnitStrideSegmentedStore            0      0.00%    100.00% # Class of committed instruction (Count)
system.cpu0.commit.committedInstType_0::SimdUnitStrideSegmentedFaultOnlyFirstLoad            0      0.00%    100.00% # Class of committed instruction (Count)
system.cpu0.commit.committedInstType_0::SimdStrideSegmentedLoad            0      0.00%    100.00% # Class of committed instruction (Count)
system.cpu0.commit.committedInstType_0::SimdStrideSegmentedStore            0      0.00%    100.00% # Class of committed instruction (Count)
system.cpu0.commit.committedInstType_0::SimdExt            0      0.00%    100.00% # Class of committed instruction (Count)
system.cpu0.commit.committedInstType_0::SimdFloatExt            0      0.00%    100.00% # Class of committed instruction (Count)
system.cpu0.commit.committedInstType_0::SimdConfig            0      0.00%    100.00% # Class of committed instruction (Count)
system.cpu0.commit.committedInstType_0::total    343445061                       # Class of committed instruction (Count)
system.cpu0.commit.commitEligibleSamples     19823228                       # number cycles where commit BW limit reached (Cycle)
system.cpu0.commitStats0.numInsts           199198177                       # Number of instructions committed (thread level) (Count)
system.cpu0.commitStats0.numOps             343445061                       # Number of ops (including micro ops) committed (thread level) (Count)
system.cpu0.commitStats0.numInstsNotNOP     199198177                       # Number of instructions committed excluding NOPs or prefetches (Count)
system.cpu0.commitStats0.numOpsNotNOP       343445061                       # Number of Ops (including micro ops) Simulated (Count)
system.cpu0.commitStats0.cpi                 1.208320                       # CPI: cycles per instruction (thread level) ((Cycle/Count))
system.cpu0.commitStats0.ipc                 0.827596                       # IPC: instructions per cycle (thread level) ((Count/Cycle))
system.cpu0.commitStats0.numMemRefs         109589268                       # Number of memory references committed (Count)
system.cpu0.commitStats0.numFpInsts           8009880                       # Number of float instructions (Count)
system.cpu0.commitStats0.numIntInsts        328135726                       # Number of integer instructions (Count)
system.cpu0.commitStats0.numLoadInsts        69823797                       # Number of load instructions (Count)
system.cpu0.commitStats0.numStoreInsts       39765471                       # Number of store instructions (Count)
system.cpu0.commitStats0.numVecInsts                0                       # Number of vector instructions (Count)
system.cpu0.commitStats0.committedInstType::No_OpClass      8002546      2.33%      2.33% # Class of committed instruction. (Count)
system.cpu0.commitStats0.committedInstType::IntAlu    219847378     64.01%     66.34% # Class of committed instruction. (Count)
system.cpu0.commitStats0.committedInstType::IntMult      2000168      0.58%     66.92% # Class of committed instruction. (Count)
system.cpu0.commitStats0.committedInstType::IntDiv           77      0.00%     66.92% # Class of committed instruction. (Count)
system.cpu0.commitStats0.committedInstType::FloatAdd      2001690      0.58%     67.51% # Class of committed instruction. (Count)
system.cpu0.commitStats0.committedInstType::FloatCmp            0      0.00%     67.51% # Class of committed instruction. (Count)
system.cpu0.commitStats0.committedInstType::FloatCvt            0      0.00%     67.51% # Class of committed instruction. (Count)
system.cpu0.commitStats0.committedInstType::FloatMult            0      0.00%     67.51% # Class of committed instruction. (Count)
system.cpu0.commitStats0.committedInstType::FloatMultAcc            0      0.00%     67.51% # Class of committed instruction. (Count)
system.cpu0.commitStats0.committedInstType::FloatDiv            0      0.00%     67.51% # Class of committed instruction. (Count)
system.cpu0.commitStats0.committedInstType::FloatMisc            0      0.00%     67.51% # Class of committed instruction. (Count)
system.cpu0.commitStats0.committedInstType::FloatSqrt            0      0.00%     67.51% # Class of committed instruction. (Count)
system.cpu0.commitStats0.committedInstType::SimdAdd           26      0.00%     67.51% # Class of committed instruction. (Count)
system.cpu0.commitStats0.committedInstType::SimdAddAcc            0      0.00%     67.51% # Class of committed instruction. (Count)
system.cpu0.commitStats0.committedInstType::SimdAlu         1006      0.00%     67.51% # Class of committed instruction. (Count)
system.cpu0.commitStats0.committedInstType::SimdCmp            6      0.00%     67.51% # Class of committed instruction. (Count)
system.cpu0.commitStats0.committedInstType::SimdCvt          464      0.00%     67.51% # Class of committed instruction. (Count)
system.cpu0.commitStats0.committedInstType::SimdMisc      2002390      0.58%     68.09% # Class of committed instruction. (Count)
system.cpu0.commitStats0.committedInstType::SimdMult            0      0.00%     68.09% # Class of committed instruction. (Count)
system.cpu0.commitStats0.committedInstType::SimdMultAcc            0      0.00%     68.09% # Class of committed instruction. (Count)
system.cpu0.commitStats0.committedInstType::SimdMatMultAcc            0      0.00%     68.09% # Class of committed instruction. (Count)
system.cpu0.commitStats0.committedInstType::SimdShift            0      0.00%     68.09% # Class of committed instruction. (Count)
system.cpu0.commitStats0.committedInstType::SimdShiftAcc            0      0.00%     68.09% # Class of committed instruction. (Count)
system.cpu0.commitStats0.committedInstType::SimdDiv            0      0.00%     68.09% # Class of committed instruction. (Count)
system.cpu0.commitStats0.committedInstType::SimdSqrt            0      0.00%     68.09% # Class of committed instruction. (Count)
system.cpu0.commitStats0.committedInstType::SimdFloatAdd           19      0.00%     68.09% # Class of committed instruction. (Count)
system.cpu0.commitStats0.committedInstType::SimdFloatAlu            0      0.00%     68.09% # Class of committed instruction. (Count)
system.cpu0.commitStats0.committedInstType::SimdFloatCmp            0      0.00%     68.09% # Class of committed instruction. (Count)
system.cpu0.commitStats0.committedInstType::SimdFloatCvt            9      0.00%     68.09% # Class of committed instruction. (Count)
system.cpu0.commitStats0.committedInstType::SimdFloatDiv            2      0.00%     68.09% # Class of committed instruction. (Count)
system.cpu0.commitStats0.committedInstType::SimdFloatMisc            0      0.00%     68.09% # Class of committed instruction. (Count)
system.cpu0.commitStats0.committedInstType::SimdFloatMult           12      0.00%     68.09% # Class of committed instruction. (Count)
system.cpu0.commitStats0.committedInstType::SimdFloatMultAcc            0      0.00%     68.09% # Class of committed instruction. (Count)
system.cpu0.commitStats0.committedInstType::SimdFloatMatMultAcc            0      0.00%     68.09% # Class of committed instruction. (Count)
system.cpu0.commitStats0.committedInstType::SimdFloatSqrt            0      0.00%     68.09% # Class of committed instruction. (Count)
system.cpu0.commitStats0.committedInstType::SimdReduceAdd            0      0.00%     68.09% # Class of committed instruction. (Count)
system.cpu0.commitStats0.committedInstType::SimdReduceAlu            0      0.00%     68.09% # Class of committed instruction. (Count)
system.cpu0.commitStats0.committedInstType::SimdReduceCmp            0      0.00%     68.09% # Class of committed instruction. (Count)
system.cpu0.commitStats0.committedInstType::SimdFloatReduceAdd            0      0.00%     68.09% # Class of committed instruction. (Count)
system.cpu0.commitStats0.committedInstType::SimdFloatReduceCmp            0      0.00%     68.09% # Class of committed instruction. (Count)
system.cpu0.commitStats0.committedInstType::SimdAes            0      0.00%     68.09% # Class of committed instruction. (Count)
system.cpu0.commitStats0.committedInstType::SimdAesMix            0      0.00%     68.09% # Class of committed instruction. (Count)
system.cpu0.commitStats0.committedInstType::SimdSha1Hash            0      0.00%     68.09% # Class of committed instruction. (Count)
system.cpu0.commitStats0.committedInstType::SimdSha1Hash2            0      0.00%     68.09% # Class of committed instruction. (Count)
system.cpu0.commitStats0.committedInstType::SimdSha256Hash            0      0.00%     68.09% # Class of committed instruction. (Count)
system.cpu0.commitStats0.committedInstType::SimdSha256Hash2            0      0.00%     68.09% # Class of committed instruction. (Count)
system.cpu0.commitStats0.committedInstType::SimdShaSigma2            0      0.00%     68.09% # Class of committed instruction. (Count)
system.cpu0.commitStats0.committedInstType::SimdShaSigma3            0      0.00%     68.09% # Class of committed instruction. (Count)
system.cpu0.commitStats0.committedInstType::SimdPredAlu            0      0.00%     68.09% # Class of committed instruction. (Count)
system.cpu0.commitStats0.committedInstType::Matrix            0      0.00%     68.09% # Class of committed instruction. (Count)
system.cpu0.commitStats0.committedInstType::MatrixMov            0      0.00%     68.09% # Class of committed instruction. (Count)
system.cpu0.commitStats0.committedInstType::MatrixOP            0      0.00%     68.09% # Class of committed instruction. (Count)
system.cpu0.commitStats0.committedInstType::MemRead     69322787     20.18%     88.28% # Class of committed instruction. (Count)
system.cpu0.commitStats0.committedInstType::MemWrite     37263276     10.85%     99.13% # Class of committed instruction. (Count)
system.cpu0.commitStats0.committedInstType::FloatMemRead       501010      0.15%     99.27% # Class of committed instruction. (Count)
system.cpu0.commitStats0.committedInstType::FloatMemWrite      2502195      0.73%    100.00% # Class of committed instruction. (Count)
system.cpu0.commitStats0.committedInstType::IprAccess            0      0.00%    100.00% # Class of committed instruction. (Count)
system.cpu0.commitStats0.committedInstType::InstPrefetch            0      0.00%    100.00% # Class of committed instruction. (Count)
system.cpu0.commitStats0.committedInstType::SimdUnitStrideLoad            0      0.00%    100.00% # Class of committed instruction. (Count)
system.cpu0.commitStats0.committedInstType::SimdUnitStrideStore            0      0.00%    100.00% # Class of committed instruction. (Count)
system.cpu0.commitStats0.committedInstType::SimdUnitStrideMaskLoad            0      0.00%    100.00% # Class of committed instruction. (Count)
system.cpu0.commitStats0.committedInstType::SimdUnitStrideMaskStore            0      0.00%    100.00% # Class of committed instruction. (Count)
system.cpu0.commitStats0.committedInstType::SimdStridedLoad            0      0.00%    100.00% # Class of committed instruction. (Count)
system.cpu0.commitStats0.committedInstType::SimdStridedStore            0      0.00%    100.00% # Class of committed instruction. (Count)
system.cpu0.commitStats0.committedInstType::SimdIndexedLoad            0      0.00%    100.00% # Class of committed instruction. (Count)
system.cpu0.commitStats0.committedInstType::SimdIndexedStore            0      0.00%    100.00% # Class of committed instruction. (Count)
system.cpu0.commitStats0.committedInstType::SimdWholeRegisterLoad            0      0.00%    100.00% # Class of committed instruction. (Count)
system.cpu0.commitStats0.committedInstType::SimdWholeRegisterStore            0      0.00%    100.00% # Class of committed instruction. (Count)
system.cpu0.commitStats0.committedInstType::SimdUnitStrideFaultOnlyFirstLoad            0      0.00%    100.00% # Class of committed instruction. (Count)
system.cpu0.commitStats0.committedInstType::SimdUnitStrideSegmentedLoad            0      0.00%    100.00% # Class of committed instruction. (Count)
system.cpu0.commitStats0.committedInstType::SimdUnitStrideSegmentedStore            0      0.00%    100.00% # Class of committed instruction. (Count)
system.cpu0.commitStats0.committedInstType::SimdUnitStrideSegmentedFaultOnlyFirstLoad            0      0.00%    100.00% # Class of committed instruction. (Count)
[...]
system.membus.snoopFanout::samples            1943057                       # Request fanout histogram (Count)
system.membus.snoopFanout::mean                     0                       # Request fanout histogram (Count)
system.membus.snoopFanout::stdev                    0                       # Request fanout histogram (Count)
system.membus.snoopFanout::underflows               0      0.00%      0.00% # Request fanout histogram (Count)
system.membus.snoopFanout::0                  1943057    100.00%    100.00% # Request fanout histogram (Count)
system.membus.snoopFanout::1                        0      0.00%    100.00% # Request fanout histogram (Count)
system.membus.snoopFanout::overflows                0      0.00%    100.00% # Request fanout histogram (Count)
system.membus.snoopFanout::min_value                0                       # Request fanout histogram (Count)
system.membus.snoopFanout::max_value                0                       # Request fanout histogram (Count)
system.membus.snoopFanout::total              1943057                       # Request fanout histogram (Count)
system.membus.power_state.pwrStateResidencyTicks::UNDEFINED 321738763000                       # Cumulative time (in ticks) in various power states (Tick)
system.membus.reqLayer16.occupancy         9000493500                       # Layer occupancy (ticks) (Tick)
system.membus.reqLayer16.utilization              0.0                       # Layer utilization (Ratio)
system.membus.respLayer1.occupancy        10358634250                       # Layer occupancy (ticks) (Tick)
system.membus.respLayer1.utilization              0.0                       # Layer utilization (Ratio)
system.membus.snoop_filter.totRequests        3876578                       # Total number of requests made to the snoop filter. (Count)
system.membus.snoop_filter.hitSingleRequests      1938323                       # Number of requests hitting in the snoop filter with a single holder of the requested data. (Count)
system.membus.snoop_filter.hitMultiRequests            0                       # Number of requests hitting in the snoop filter with multiple (>1) holders of the requested data. (Count)
system.membus.snoop_filter.totSnoops                0                       # Total number of snoops made to the snoop filter. (Count)
system.membus.snoop_filter.hitSingleSnoops            0                       # Number of snoops hitting in the snoop filter with a single holder of the requested data. (Count)
system.membus.snoop_filter.hitMultiSnoops            0                       # Number of snoops hitting in the snoop filter with multiple (>1) holders of the requested data. (Count)
system.tol2bus.transDist::ReadResp            1017863                       # Transaction distribution (Count)
system.tol2bus.transDist::ReadRespWithInvalidate            1                       # Transaction distribution (Count)
system.tol2bus.transDist::WritebackDirty      2643108                       # Transaction distribution (Count)
system.tol2bus.transDist::WritebackClean         3351                       # Transaction distribution (Count)
system.tol2bus.transDist::CleanEvict          1786363                       # Transaction distribution (Count)
system.tol2bus.transDist::UpgradeReq              487                       # Transaction distribution (Count)
system.tol2bus.transDist::UpgradeResp             487                       # Transaction distribution (Count)
system.tol2bus.transDist::ReadExReq           1226856                       # Transaction distribution (Count)
system.tol2bus.transDist::ReadExResp          1226856                       # Transaction distribution (Count)
system.tol2bus.transDist::ReadCleanReq           5141                       # Transaction distribution (Count)
system.tol2bus.transDist::ReadSharedReq       1012724                       # Transaction distribution (Count)
system.tol2bus.pktCount_system.cpu0.icache.mem_side_port::system.l2.cpu_side_port         7588                       # Packet count per connected requestor and responder (Count)
system.tol2bus.pktCount_system.cpu0.dcache.mem_side_port::system.l2.cpu_side_port      1313266                       # Packet count per connected requestor and responder (Count)
system.tol2bus.pktCount_system.cpu1.icache.mem_side_port::system.l2.cpu_side_port          760                       # Packet count per connected requestor and responder (Count)
system.tol2bus.pktCount_system.cpu1.dcache.mem_side_port::system.l2.cpu_side_port       373142                       # Packet count per connected requestor and responder (Count)
system.tol2bus.pktCount_system.cpu2.icache.mem_side_port::system.l2.cpu_side_port          603                       # Packet count per connected requestor and responder (Count)
system.tol2bus.pktCount_system.cpu2.dcache.mem_side_port::system.l2.cpu_side_port       487798                       # Packet count per connected requestor and responder (Count)
system.tol2bus.pktCount_system.cpu3.icache.mem_side_port::system.l2.cpu_side_port         1018                       # Packet count per connected requestor and responder (Count)
system.tol2bus.pktCount_system.cpu3.dcache.mem_side_port::system.l2.cpu_side_port      1162467                       # Packet count per connected requestor and responder (Count)
system.tol2bus.pktCount_system.cpu4.icache.mem_side_port::system.l2.cpu_side_port          932                       # Packet count per connected requestor and responder (Count)
system.tol2bus.pktCount_system.cpu4.dcache.mem_side_port::system.l2.cpu_side_port       674081                       # Packet count per connected requestor and responder (Count)
system.tol2bus.pktCount_system.cpu5.icache.mem_side_port::system.l2.cpu_side_port          992                       # Packet count per connected requestor and responder (Count)
system.tol2bus.pktCount_system.cpu5.dcache.mem_side_port::system.l2.cpu_side_port      1162259                       # Packet count per connected requestor and responder (Count)
system.tol2bus.pktCount_system.cpu6.icache.mem_side_port::system.l2.cpu_side_port          788                       # Packet count per connected requestor and responder (Count)
system.tol2bus.pktCount_system.cpu6.dcache.mem_side_port::system.l2.cpu_side_port       373210                       # Packet count per connected requestor and responder (Count)
system.tol2bus.pktCount_system.cpu7.icache.mem_side_port::system.l2.cpu_side_port          949                       # Packet count per connected requestor and responder (Count)
system.tol2bus.pktCount_system.cpu7.dcache.mem_side_port::system.l2.cpu_side_port      1161751                       # Packet count per connected requestor and responder (Count)
system.tol2bus.pktCount::total                6721604                       # Packet count per connected requestor and responder (Count)
system.tol2bus.pktSize_system.cpu0.icache.mem_side_port::system.l2.cpu_side_port       318208                       # Cumulative packet size per connected requestor and responder (Byte)
system.tol2bus.pktSize_system.cpu0.dcache.mem_side_port::system.l2.cpu_side_port     48115328                       # Cumulative packet size per connected requestor and responder (Byte)
system.tol2bus.pktSize_system.cpu1.icache.mem_side_port::system.l2.cpu_side_port        27904                       # Cumulative packet size per connected requestor and responder (Byte)
system.tol2bus.pktSize_system.cpu1.dcache.mem_side_port::system.l2.cpu_side_port     11964288                       # Cumulative packet size per connected requestor and responder (Byte)
system.tol2bus.pktSize_system.cpu2.icache.mem_side_port::system.l2.cpu_side_port        21568                       # Cumulative packet size per connected requestor and responder (Byte)
system.tol2bus.pktSize_system.cpu2.dcache.mem_side_port::system.l2.cpu_side_port     17108416                       # Cumulative packet size per connected requestor and responder (Byte)
system.tol2bus.pktSize_system.cpu3.icache.mem_side_port::system.l2.cpu_side_port        38528                       # Cumulative packet size per connected requestor and responder (Byte)
system.tol2bus.pktSize_system.cpu3.dcache.mem_side_port::system.l2.cpu_side_port     41039552                       # Cumulative packet size per connected requestor and responder (Byte)
system.tol2bus.pktSize_system.cpu4.icache.mem_side_port::system.l2.cpu_side_port        34880                       # Cumulative packet size per connected requestor and responder (Byte)
system.tol2bus.pktSize_system.cpu4.dcache.mem_side_port::system.l2.cpu_side_port     23437696                       # Cumulative packet size per connected requestor and responder (Byte)
system.tol2bus.pktSize_system.cpu5.icache.mem_side_port::system.l2.cpu_side_port        37440                       # Cumulative packet size per connected requestor and responder (Byte)
system.tol2bus.pktSize_system.cpu5.dcache.mem_side_port::system.l2.cpu_side_port     40773120                       # Cumulative packet size per connected requestor and responder (Byte)
system.tol2bus.pktSize_system.cpu6.icache.mem_side_port::system.l2.cpu_side_port        29120                       # Cumulative packet size per connected requestor and responder (Byte)
system.tol2bus.pktSize_system.cpu6.dcache.mem_side_port::system.l2.cpu_side_port     11946560                       # Cumulative packet size per connected requestor and responder (Byte)
system.tol2bus.pktSize_system.cpu7.icache.mem_side_port::system.l2.cpu_side_port        35648                       # Cumulative packet size per connected requestor and responder (Byte)
system.tol2bus.pktSize_system.cpu7.dcache.mem_side_port::system.l2.cpu_side_port     41350976                       # Cumulative packet size per connected requestor and responder (Byte)
system.tol2bus.pktSize::total               236279232                       # Cumulative packet size per connected requestor and responder (Byte)
system.tol2bus.snoops                         2201633                       # Total snoops (Count)
system.tol2bus.snoopTraffic                  76756224                       # Total snoop traffic (Byte)
system.tol2bus.snoopFanout::samples           4440152                       # Request fanout histogram (Count)
system.tol2bus.snoopFanout::mean             0.106991                       # Request fanout histogram (Count)
system.tol2bus.snoopFanout::stdev            0.350527                       # Request fanout histogram (Count)
system.tol2bus.snoopFanout::underflows              0      0.00%      0.00% # Request fanout histogram (Count)
system.tol2bus.snoopFanout::0                 3992953     89.93%     89.93% # Request fanout histogram (Count)
system.tol2bus.snoopFanout::1                  435821      9.82%     99.74% # Request fanout histogram (Count)
system.tol2bus.snoopFanout::2                    3919      0.09%     99.83% # Request fanout histogram (Count)
system.tol2bus.snoopFanout::3                    3114      0.07%     99.90% # Request fanout histogram (Count)
system.tol2bus.snoopFanout::4                    1564      0.04%     99.94% # Request fanout histogram (Count)
system.tol2bus.snoopFanout::5                    1556      0.04%     99.97% # Request fanout histogram (Count)
system.tol2bus.snoopFanout::6                     634      0.01%     99.99% # Request fanout histogram (Count)
system.tol2bus.snoopFanout::7                     514      0.01%    100.00% # Request fanout histogram (Count)
system.tol2bus.snoopFanout::8                      77      0.00%    100.00% # Request fanout histogram (Count)
system.tol2bus.snoopFanout::9                       0      0.00%    100.00% # Request fanout histogram (Count)
system.tol2bus.snoopFanout::10                      0      0.00%    100.00% # Request fanout histogram (Count)
system.tol2bus.snoopFanout::11                      0      0.00%    100.00% # Request fanout histogram (Count)
system.tol2bus.snoopFanout::12                      0      0.00%    100.00% # Request fanout histogram (Count)
system.tol2bus.snoopFanout::13                      0      0.00%    100.00% # Request fanout histogram (Count)
system.tol2bus.snoopFanout::14                      0      0.00%    100.00% # Request fanout histogram (Count)
system.tol2bus.snoopFanout::15                      0      0.00%    100.00% # Request fanout histogram (Count)
system.tol2bus.snoopFanout::16                      0      0.00%    100.00% # Request fanout histogram (Count)
system.tol2bus.snoopFanout::17                      0      0.00%    100.00% # Request fanout histogram (Count)
system.tol2bus.snoopFanout::18                      0      0.00%    100.00% # Request fanout histogram (Count)
system.tol2bus.snoopFanout::19                      0      0.00%    100.00% # Request fanout histogram (Count)
system.tol2bus.snoopFanout::20                      0      0.00%    100.00% # Request fanout histogram (Count)
system.tol2bus.snoopFanout::21                      0      0.00%    100.00% # Request fanout histogram (Count)
system.tol2bus.snoopFanout::22                      0      0.00%    100.00% # Request fanout histogram (Count)
system.tol2bus.snoopFanout::23                      0      0.00%    100.00% # Request fanout histogram (Count)
system.tol2bus.snoopFanout::24                      0      0.00%    100.00% # Request fanout histogram (Count)
system.tol2bus.snoopFanout::25                      0      0.00%    100.00% # Request fanout histogram (Count)
system.tol2bus.snoopFanout::26                      0      0.00%    100.00% # Request fanout histogram (Count)
system.tol2bus.snoopFanout::27                      0      0.00%    100.00% # Request fanout histogram (Count)
system.tol2bus.snoopFanout::28                      0      0.00%    100.00% # Request fanout histogram (Count)
system.tol2bus.snoopFanout::29                      0      0.00%    100.00% # Request fanout histogram (Count)
system.tol2bus.snoopFanout::30                      0      0.00%    100.00% # Request fanout histogram (Count)
system.tol2bus.snoopFanout::31                      0      0.00%    100.00% # Request fanout histogram (Count)
system.tol2bus.snoopFanout::32                      0      0.00%    100.00% # Request fanout histogram (Count)
system.tol2bus.snoopFanout::overflows               0      0.00%    100.00% # Request fanout histogram (Count)
system.tol2bus.snoopFanout::min_value               0                       # Request fanout histogram (Count)
system.tol2bus.snoopFanout::max_value               8                       # Request fanout histogram (Count)
system.tol2bus.snoopFanout::total             4440152                       # Request fanout histogram (Count)
system.tol2bus.power_state.pwrStateResidencyTicks::UNDEFINED 321738763000                       # Cumulative time (in ticks) in various power states (Tick)
system.tol2bus.reqLayer0.occupancy         3694934988                       # Layer occupancy (ticks) (Tick)
system.tol2bus.reqLayer0.utilization              0.0                       # Layer utilization (Ratio)
system.tol2bus.respLayer0.occupancy           3923498                       # Layer occupancy (ticks) (Tick)
system.tol2bus.respLayer0.utilization             0.0                       # Layer utilization (Ratio)
system.tol2bus.respLayer1.occupancy         657529491                       # Layer occupancy (ticks) (Tick)
system.tol2bus.respLayer1.utilization             0.0                       # Layer utilization (Ratio)
system.tol2bus.respLayer12.occupancy           634452                       # Layer occupancy (ticks) (Tick)
system.tol2bus.respLayer12.utilization            0.0                       # Layer utilization (Ratio)
system.tol2bus.respLayer13.occupancy        581931282                       # Layer occupancy (ticks) (Tick)
system.tol2bus.respLayer13.utilization            0.0                       # Layer utilization (Ratio)
system.tol2bus.respLayer16.occupancy           595933                       # Layer occupancy (ticks) (Tick)
system.tol2bus.respLayer16.utilization            0.0                       # Layer utilization (Ratio)
system.tol2bus.respLayer17.occupancy        337827784                       # Layer occupancy (ticks) (Tick)
system.tol2bus.respLayer17.utilization            0.0                       # Layer utilization (Ratio)
system.tol2bus.respLayer20.occupancy           619449                       # Layer occupancy (ticks) (Tick)
system.tol2bus.respLayer20.utilization            0.0                       # Layer utilization (Ratio)
system.tol2bus.respLayer21.occupancy        581988719                       # Layer occupancy (ticks) (Tick)
system.tol2bus.respLayer21.utilization            0.0                       # Layer utilization (Ratio)
system.tol2bus.respLayer24.occupancy           519950                       # Layer occupancy (ticks) (Tick)
system.tol2bus.respLayer24.utilization            0.0                       # Layer utilization (Ratio)
system.tol2bus.respLayer25.occupancy        187424954                       # Layer occupancy (ticks) (Tick)
system.tol2bus.respLayer25.utilization            0.0                       # Layer utilization (Ratio)
system.tol2bus.respLayer28.occupancy           596954                       # Layer occupancy (ticks) (Tick)
system.tol2bus.respLayer28.utilization            0.0                       # Layer utilization (Ratio)
system.tol2bus.respLayer29.occupancy        581641676                       # Layer occupancy (ticks) (Tick)
system.tol2bus.respLayer29.utilization            0.0                       # Layer utilization (Ratio)
system.tol2bus.respLayer4.occupancy            493958                       # Layer occupancy (ticks) (Tick)
system.tol2bus.respLayer4.utilization             0.0                       # Layer utilization (Ratio)
system.tol2bus.respLayer5.occupancy         187378487                       # Layer occupancy (ticks) (Tick)
system.tol2bus.respLayer5.utilization             0.0                       # Layer utilization (Ratio)
system.tol2bus.respLayer8.occupancy            409946                       # Layer occupancy (ticks) (Tick)
system.tol2bus.respLayer8.utilization             0.0                       # Layer utilization (Ratio)
system.tol2bus.respLayer9.occupancy         244453835                       # Layer occupancy (ticks) (Tick)
system.tol2bus.respLayer9.utilization             0.0                       # Layer utilization (Ratio)
system.tol2bus.snoop_filter.totRequests       4483086                       # Total number of requests made to the snoop filter. (Count)
system.tol2bus.snoop_filter.hitSingleRequests      2234854                       # Number of requests hitting in the snoop filter with a single holder of the requested data. (Count)
system.tol2bus.snoop_filter.hitMultiRequests        19876                       # Number of requests hitting in the snoop filter with multiple (>1) holders of the requested data. (Count)
system.tol2bus.snoop_filter.totSnoops          430357                       # Total number of snoops made to the snoop filter. (Count)
system.tol2bus.snoop_filter.hitSingleSnoops       426821                       # Number of snoops hitting in the snoop filter with a single holder of the requested data. (Count)
system.tol2bus.snoop_filter.hitMultiSnoops         3536                       # Number of snoops hitting in the snoop filter with multiple (>1) holders of the requested data. (Count)
system.voltage_domain.voltage                       1                       # Voltage in Volts (Volt)
system.workload.inst.arm                            0                       # number of arm instructions executed (Count)
system.workload.inst.quiesce                        0                       # number of quiesce instructions executed (Count)

---------- End Simulation Statistics   ----------
