
---------- Begin Simulation Statistics ----------
simSeconds                                   0.313003                       # Number of seconds simulated (Second)
simTicks                                 313003067000                       # Number of ticks simulated (Tick)
finalTick                                313003067000                       # Number of ticks from beginning of simulation (restored from checkpoints and never reset) (Tick)
simFreq                                  1000000000000                       # The number of ticks per simulated second ((Tick/Second))
hostSeconds                                  28770.75                       # Real time elapsed on the host (Second)
hostTickRate                                 10879213                       # The number of ticks simulated per host second (ticks/s) ((Tick/Second))
hostMemory                                     939320                       # Number of bytes of host memory used (Byte)
simInsts                                   2561358475                       # Number of instructions simulated (Count)
simOps                                     4020220902                       # Number of ops (including micro ops) simulated (Count)
hostInstRate                                    89026                       # Simulator instruction rate (inst/s) ((Count/Second))
hostOpRate                                     139733                       # Simulator op (including micro ops) rate (op/s) ((Count/Second))
system.clk_domain.clock                          1000                       # Clock period in ticks (Tick)
system.cpu0.numCycles                       238408908                       # Number of cpu cycles simulated (Cycle)
system.cpu0.cpi                              1.196857                       # CPI: cycles per instruction (core level) ((Cycle/Count))
system.cpu0.ipc                              0.835522                       # IPC: instructions per cycle (core level) ((Count/Cycle))
system.cpu0.numWorkItemsStarted                     0                       # Number of work items this cpu started (Count)
system.cpu0.numWorkItemsCompleted                   0                       # Number of work items this cpu completed (Count)
system.cpu0.instsAdded                      452831131                       # Number of instructions added to the IQ (excludes non-spec) (Count)
system.cpu0.nonSpecInstsAdded                 9194696                       # Number of non-speculative instructions added to the IQ (Count)
system.cpu0.instsIssued                     434814355                       # Number of instructions issued (Count)
system.cpu0.squashedInstsIssued                342345                       # Number of squashed instructions issued (Count)
system.cpu0.squashedInstsExamined           118585100                       # Number of squashed instructions iterated over during squash; mainly for profiling (Count)
system.cpu0.squashedOperandsExamined        134563353                       # Number of squashed operands that are examined and possibly removed from graph (Count)
system.cpu0.squashedNonSpecRemoved            3194080                       # Number of squashed non-spec instructions that were removed (Count)
system.cpu0.numIssuedDist::samples          238220673                       # Number of insts issued each cycle (Count)
system.cpu0.numIssuedDist::mean              1.825259                       # Number of insts issued each cycle (Count)
system.cpu0.numIssuedDist::stdev             2.131695                       # Number of insts issued each cycle (Count)
system.cpu0.numIssuedDist::underflows               0      0.00%      0.00% # Number of insts issued each cycle (Count)
system.cpu0.numIssuedDist::0                 97494989     40.93%     40.93% # Number of insts issued each cycle (Count)
system.cpu0.numIssuedDist::1                 39793913     16.70%     57.63% # Number of insts issued each cycle (Count)
system.cpu0.numIssuedDist::2                 28852838     12.11%     69.74% # Number of insts issued each cycle (Count)
system.cpu0.numIssuedDist::3                 18342374      7.70%     77.44% # Number of insts issued each cycle (Count)
system.cpu0.numIssuedDist::4                 17550450      7.37%     84.81% # Number of insts issued each cycle (Count)
system.cpu0.numIssuedDist::5                 16122253      6.77%     91.58% # Number of insts issued each cycle (Count)
system.cpu0.numIssuedDist::6                 11729792      4.92%     96.50% # Number of insts issued each cycle (Count)
system.cpu0.numIssuedDist::7                  5576685      2.34%     98.84% # Number of insts issued each cycle (Count)
system.cpu0.numIssuedDist::8                  2757379      1.16%    100.00% # Number of insts issued each cycle (Count)
system.cpu0.numIssuedDist::overflows                0      0.00%    100.00% # Number of insts issued each cycle (Count)
system.cpu0.numIssuedDist::min_value                0                       # Number of insts issued each cycle (Count)
system.cpu0.numIssuedDist::max_value                8                       # Number of insts issued each cycle (Count)
system.cpu0.numIssuedDist::total            238220673                       # Number of insts issued each cycle (Count)
system.cpu0.statFuBusy::No_OpClass                  0      0.00%      0.00% # attempts to use FU when none available (Count)
system.cpu0.statFuBusy::IntAlu                1877614     13.22%     13.22% # attempts to use FU when none available (Count)
system.cpu0.statFuBusy::IntMult                     0      0.00%     13.22% # attempts to use FU when none available (Count)
system.cpu0.statFuBusy::IntDiv                      0      0.00%     13.22% # attempts to use FU when none available (Count)
system.cpu0.statFuBusy::FloatAdd                    0      0.00%     13.22% # attempts to use FU when none available (Count)
system.cpu0.statFuBusy::FloatCmp                    0      0.00%     13.22% # attempts to use FU when none available (Count)
system.cpu0.statFuBusy::FloatCvt                    0      0.00%     13.22% # attempts to use FU when none available (Count)
system.cpu0.statFuBusy::FloatMult                   0      0.00%     13.22% # attempts to use FU when none available (Count)
system.cpu0.statFuBusy::FloatMultAcc                0      0.00%     13.22% # attempts to use FU when none available (Count)
system.cpu0.statFuBusy::FloatDiv                    0      0.00%     13.22% # attempts to use FU when none available (Count)
system.cpu0.statFuBusy::FloatMisc                   0      0.00%     13.22% # attempts to use FU when none available (Count)
system.cpu0.statFuBusy::FloatSqrt                   0      0.00%     13.22% # attempts to use FU when none available (Count)
system.cpu0.statFuBusy::SimdAdd                     0      0.00%     13.22% # attempts to use FU when none available (Count)
system.cpu0.statFuBusy::SimdAddAcc                  0      0.00%     13.22% # attempts to use FU when none available (Count)
system.cpu0.statFuBusy::SimdAlu                   115      0.00%     13.22% # attempts to use FU when none available (Count)
system.cpu0.statFuBusy::SimdCmp                     0      0.00%     13.22% # attempts to use FU when none available (Count)
system.cpu0.statFuBusy::SimdCvt                     6      0.00%     13.22% # attempts to use FU when none available (Count)
system.cpu0.statFuBusy::SimdMisc                   10      0.00%     13.22% # attempts to use FU when none available (Count)
system.cpu0.statFuBusy::SimdMult                    0      0.00%     13.22% # attempts to use FU when none available (Count)
system.cpu0.statFuBusy::SimdMultAcc                 0      0.00%     13.22% # attempts to use FU when none available (Count)
system.cpu0.statFuBusy::SimdMatMultAcc              0      0.00%     13.22% # attempts to use FU when none available (Count)
system.cpu0.statFuBusy::SimdShift                   0      0.00%     13.22% # attempts to use FU when none available (Count)
system.cpu0.statFuBusy::SimdShiftAcc                0      0.00%     13.22% # attempts to use FU when none available (Count)
system.cpu0.statFuBusy::SimdDiv                     0      0.00%     13.22% # attempts to use FU when none available (Count)
system.cpu0.statFuBusy::SimdSqrt                    0      0.00%     13.22% # attempts to use FU when none available (Count)
system.cpu0.statFuBusy::SimdFloatAdd                1      0.00%     13.22% # attempts to use FU when none available (Count)
system.cpu0.statFuBusy::SimdFloatAlu                0      0.00%     13.22% # attempts to use FU when none available (Count)
system.cpu0.statFuBusy::SimdFloatCmp                0      0.00%     13.22% # attempts to use FU when none available (Count)
system.cpu0.statFuBusy::SimdFloatCvt                0      0.00%     13.22% # attempts to use FU when none available (Count)
system.cpu0.statFuBusy::SimdFloatDiv                0      0.00%     13.22% # attempts to use FU when none available (Count)
system.cpu0.statFuBusy::SimdFloatMisc               0      0.00%     13.22% # attempts to use FU when none available (Count)
system.cpu0.statFuBusy::SimdFloatMult               0      0.00%     13.22% # attempts to use FU when none available (Count)
system.cpu0.statFuBusy::SimdFloatMultAcc            0      0.00%     13.22% # attempts to use FU when none available (Count)
system.cpu0.statFuBusy::SimdFloatMatMultAcc            0      0.00%     13.22% # attempts to use FU when none available (Count)
system.cpu0.statFuBusy::SimdFloatSqrt               0      0.00%     13.22% # attempts to use FU when none available (Count)
system.cpu0.statFuBusy::SimdReduceAdd               0      0.00%     13.22% # attempts to use FU when none available (Count)
system.cpu0.statFuBusy::SimdReduceAlu               0      0.00%     13.22% # attempts to use FU when none available (Count)
system.cpu0.statFuBusy::SimdReduceCmp               0      0.00%     13.22% # attempts to use FU when none available (Count)
system.cpu0.statFuBusy::SimdFloatReduceAdd            0      0.00%     13.22% # attempts to use FU when none available (Count)
system.cpu0.statFuBusy::SimdFloatReduceCmp            0      0.00%     13.22% # attempts to use FU when none available (Count)
system.cpu0.statFuBusy::SimdAes                     0      0.00%     13.22% # attempts to use FU when none available (Count)
system.cpu0.statFuBusy::SimdAesMix                  0      0.00%     13.22% # attempts to use FU when none available (Count)
system.cpu0.statFuBusy::SimdSha1Hash                0      0.00%     13.22% # attempts to use FU when none available (Count)
system.cpu0.statFuBusy::SimdSha1Hash2               0      0.00%     13.22% # attempts to use FU when none available (Count)
system.cpu0.statFuBusy::SimdSha256Hash              0      0.00%     13.22% # attempts to use FU when none available (Count)
system.cpu0.statFuBusy::SimdSha256Hash2             0      0.00%     13.22% # attempts to use FU when none available (Count)
system.cpu0.statFuBusy::SimdShaSigma2               0      0.00%     13.22% # attempts to use FU when none available (Count)
system.cpu0.statFuBusy::SimdShaSigma3               0      0.00%     13.22% # attempts to use FU when none available (Count)
system.cpu0.statFuBusy::SimdPredAlu                 0      0.00%     13.22% # attempts to use FU when none available (Count)
system.cpu0.statFuBusy::Matrix                      0      0.00%     13.22% # attempts to use FU when none available (Count)
system.cpu0.statFuBusy::MatrixMov                   0      0.00%     13.22% # attempts to use FU when none available (Count)
system.cpu0.statFuBusy::MatrixOP                    0      0.00%     13.22% # attempts to use FU when none available (Count)
system.cpu0.statFuBusy::MemRead               4194235     29.54%     42.76% # attempts to use FU when none available (Count)
system.cpu0.statFuBusy::MemWrite              4900519     34.51%     77.27% # attempts to use FU when none available (Count)
system.cpu0.statFuBusy::FloatMemRead          1460590     10.29%     87.55% # attempts to use FU when none available (Count)
system.cpu0.statFuBusy::FloatMemWrite         1767321     12.45%    100.00% # attempts to use FU when none available (Count)
system.cpu0.statFuBusy::IprAccess                   0      0.00%    100.00% # attempts to use FU when none available (Count)
system.cpu0.statFuBusy::InstPrefetch                0      0.00%    100.00% # attempts to use FU when none available (Count)
system.cpu0.statFuBusy::SimdUnitStrideLoad            0      0.00%    100.00% # attempts to use FU when none available (Count)
system.cpu0.statFuBusy::SimdUnitStrideStore            0      0.00%    100.00% # attempts to use FU when none available (Count)
system.cpu0.statFuBusy::SimdUnitStrideMaskLoad            0      0.00%    100.00% # attempts to use FU when none available (Count)
system.cpu0.statFuBusy::SimdUnitStrideMaskStore            0      0.00%    100.00% # attempts to use FU when none available (Count)
system.cpu0.statFuBusy::SimdStridedLoad             0      0.00%    100.00% # attempts to use FU when none available (Count)
system.cpu0.statFuBusy::SimdStridedStore            0      0.00%    100.00% # attempts to use FU when none available (Count)
system.cpu0.statFuBusy::SimdIndexedLoad             0      0.00%    100.00% # attempts to use FU when none available (Count)
system.cpu0.statFuBusy::SimdIndexedStore            0      0.00%    100.00% # attempts to use FU when none available (Count)
system.cpu0.statFuBusy::SimdWholeRegisterLoad            0      0.00%    100.00% # attempts to use FU when none available (Count)
system.cpu0.statFuBusy::SimdWholeRegisterStore            0      0.00%    100.00% # attempts to use FU when none available (Count)
system.cpu0.statFuBusy::SimdUnitStrideFaultOnlyFirstLoad            0      0.00%    100.00% # attempts to use FU when none available (Count)
system.cpu0.statFuBusy::SimdUnitStrideSegmentedLoad            0      0.00%    100.00% # attempts to use FU when none available (Count)
system.cpu0.statFuBusy::SimdUnitStrideSegmentedStore            0      0.00%    100.00% # attempts to use FU when none available (Count)
system.cpu0.statFuBusy::SimdUnitStrideSegmentedFaultOnlyFirstLoad            0      0.00%    100.00% # attempts to use FU when none available (Count)
system.cpu0.statFuBusy::SimdStrideSegmentedLoad            0      0.00%    100.00% # attempts to use FU when none available (Count)
system.cpu0.statFuBusy::SimdStrideSegmentedStore            0      0.00%    100.00% # attempts to use FU when none available (Count)
system.cpu0.statFuBusy::SimdExt                     0      0.00%    100.00% # attempts to use FU when none available (Count)
system.cpu0.statFuBusy::SimdFloatExt                0      0.00%    100.00% # attempts to use FU when none available (Count)
system.cpu0.statFuBusy::SimdConfig                  0      0.00%    100.00% # attempts to use FU when none available (Count)
system.cpu0.statIssuedInstType_0::No_OpClass     14094296      3.24%      3.24% # Number of instructions issued per FU type, per thread (Count)
system.cpu0.statIssuedInstType_0::IntAlu    275802828     63.43%     66.67% # Number of instructions issued per FU type, per thread (Count)
system.cpu0.statIssuedInstType_0::IntMult      2000177      0.46%     67.13% # Number of instructions issued per FU type, per thread (Count)
system.cpu0.statIssuedInstType_0::IntDiv           95      0.00%     67.13% # Number of instructions issued per FU type, per thread (Count)
system.cpu0.statIssuedInstType_0::FloatAdd      2130849      0.49%     67.62% # Number of instructions issued per FU type, per thread (Count)
system.cpu0.statIssuedInstType_0::FloatCmp            0      0.00%     67.62% # Number of instructions issued per FU type, per thread (Count)
system.cpu0.statIssuedInstType_0::FloatCvt            0      0.00%     67.62% # Number of instructions issued per FU type, per thread (Count)
system.cpu0.statIssuedInstType_0::FloatMult            0      0.00%     67.62% # Number of instructions issued per FU type, per thread (Count)
system.cpu0.statIssuedInstType_0::FloatMultAcc            0      0.00%     67.62% # Number of instructions issued per FU type, per thread (Count)
system.cpu0.statIssuedInstType_0::FloatDiv            0      0.00%     67.62% # Number of instructions issued per FU type, per thread (Count)
system.cpu0.statIssuedInstType_0::FloatMisc            0      0.00%     67.62% # Number of instructions issued per FU type, per thread (Count)
system.cpu0.statIssuedInstType_0::FloatSqrt            0      0.00%     67.62% # Number of instructions issued per FU type, per thread (Count)
system.cpu0.statIssuedInstType_0::SimdAdd           28      0.00%     67.62% # Number of instructions issued per FU type, per thread (Count)
system.cpu0.statIssuedInstType_0::SimdAddAcc            0      0.00%     67.62% # Number of instructions issued per FU type, per thread (Count)
system.cpu0.statIssuedInstType_0::SimdAlu         1140      0.00%     67.62% # Number of instructions issued per FU type, per thread (Count)
system.cpu0.statIssuedInstType_0::SimdCmp            6      0.00%     67.62% # Number of instructions issued per FU type, per thread (Count)
system.cpu0.statIssuedInstType_0::SimdCvt          522      0.00%     67.62% # Number of instructions issued per FU type, per thread (Count)
system.cpu0.statIssuedInstType_0::SimdMisc      2131577      0.49%     68.11% # Number of instructions issued per FU type, per thread (Count)
system.cpu0.statIssuedInstType_0::SimdMult            0      0.00%     68.11% # Number of instructions issued per FU type, per thread (Count)
system.cpu0.statIssuedInstType_0::SimdMultAcc            0      0.00%     68.11% # Number of instructions issued per FU type, per thread (Count)
system.cpu0.statIssuedInstType_0::SimdMatMultAcc            0      0.00%     68.11% # Number of instructions issued per FU type, per thread (Count)
system.cpu0.statIssuedInstType_0::SimdShift            0      0.00%     68.11% # Number of instructions issued per FU type, per thread (Count)
system.cpu0.statIssuedInstType_0::SimdShiftAcc            0      0.00%     68.11% # Number of instructions issued per FU type, per thread (Count)
system.cpu0.statIssuedInstType_0::SimdDiv            0      0.00%     68.11% # Number of instructions issued per FU type, per thread (Count)
system.cpu0.statIssuedInstType_0::SimdSqrt            0      0.00%     68.11% # Number of instructions issued per FU type, per thread (Count)
system.cpu0.statIssuedInstType_0::SimdFloatAdd           19      0.00%     68.11% # Number of instructions issued per FU type, per thread (Count)
system.cpu0.statIssuedInstType_0::SimdFloatAlu            0      0.00%     68.11% # Number of instructions issued per FU type, per thread (Count)
system.cpu0.statIssuedInstType_0::SimdFloatCmp            0      0.00%     68.11% # Number of instructions issued per FU type, per thread (Count)
system.cpu0.statIssuedInstType_0::SimdFloatCvt            9      0.00%     68.11% # Number of instructions issued per FU type, per thread (Count)
system.cpu0.statIssuedInstType_0::SimdFloatDiv            2      0.00%     68.11% # Number of instructions issued per FU type, per thread (Count)
system.cpu0.statIssuedInstType_0::SimdFloatMisc            0      0.00%     68.11% # Number of instructions issued per FU type, per thread (Count)
system.cpu0.statIssuedInstType_0::SimdFloatMult           12      0.00%     68.11% # Number of instructions issued per FU type, per thread (Count)
system.cpu0.statIssuedInstType_0::SimdFloatMultAcc            0      0.00%     68.11% # Number of instructions issued per FU type, per thread (Count)
system.cpu0.statIssuedInstType_0::SimdFloatMatMultAcc            0      0.00%     68.11% # Number of instructions issued per FU type, per thread (Count)
system.cpu0.statIssuedInstType_0::SimdFloatSqrt            0      0.00%     68.11% # Number of instructions issued per FU type, per thread (Count)
system.cpu0.statIssuedInstType_0::SimdReduceAdd            0      0.00%     68.11% # Number of instructions issued per FU type, per thread (Count)
system.cpu0.statIssuedInstType_0::SimdReduceAlu            0      0.00%     68.11% # Number of instructions issued per FU type, per thread (Count)
system.cpu0.statIssuedInstType_0::SimdReduceCmp            0      0.00%     68.11% # Number of instructions issued per FU type, per thread (Count)
system.cpu0.statIssuedInstType_0::SimdFloatReduceAdd            0      0.00%     68.11% # Number of instructions issued per FU type, per thread (Count)
system.cpu0.statIssuedInstType_0::SimdFloatReduceCmp            0      0.00%     68.11% # Number of instructions issued per FU type, per thread (Count)
system.cpu0.statIssuedInstType_0::SimdAes            0      0.00%     68.11% # Number of instructions issued per FU type, per thread (Count)
system.cpu0.statIssuedInstType_0::SimdAesMix            0      0.00%     68.11% # Number of instructions issued per FU type, per thread (Count)
system.cpu0.statIssuedInstType_0::SimdSha1Hash            0      0.00%     68.11% # Number of instructions issued per FU type, per thread (Count)
system.cpu0.statIssuedInstType_0::SimdSha1Hash2            0      0.00%     68.11% # Number of instructions issued per FU type, per thread (Count)
system.cpu0.statIssuedInstType_0::SimdSha256Hash            0      0.00%     68.11% # Number of instructions issued per FU type, per thread (Count)
system.cpu0.statIssuedInstType_0::SimdSha256Hash2            0      0.00%     68.11% # Number of instructions issued per FU type, per thread (Count)
system.cpu0.statIssuedInstType_0::SimdShaSigma2            0      0.00%     68.11% # Number of instructions issued per FU type, per thread (Count)
system.cpu0.statIssuedInstType_0::SimdShaSigma3            0      0.00%     68.11% # Number of instructions issued per FU type, per thread (Count)
system.cpu0.statIssuedInstType_0::SimdPredAlu            0      0.00%     68.11% # Number of instructions issued per FU type, per thread (Count)
system.cpu0.statIssuedInstType_0::Matrix            0      0.00%     68.11% # Number of instructions issued per FU type, per thread (Count)
system.cpu0.statIssuedInstType_0::MatrixMov            0      0.00%     68.11% # Number of instructions issued per FU type, per thread (Count)
system.cpu0.statIssuedInstType_0::MatrixOP            0      0.00%     68.11% # Number of instructions issued per FU type, per thread (Count)
system.cpu0.statIssuedInstType_0::MemRead     79554979     18.30%     86.41% # Number of instructions issued per FU type, per thread (Count)
system.cpu0.statIssuedInstType_0::MemWrite     45403883     10.44%     96.85% # Number of instructions issued per FU type, per thread (Count)
system.cpu0.statIssuedInstType_0::FloatMemRead      6071139      1.40%     98.25% # Number of instructions issued per FU type, per thread (Count)
system.cpu0.statIssuedInstType_0::FloatMemWrite      7622794      1.75%    100.00% # Number of instructions issued per FU type, per thread (Count)
system.cpu0.statIssuedInstType_0::IprAccess            0      0.00%    100.00% # Number of instructions issued per FU type, per thread (Count)
system.cpu0.statIssuedInstType_0::InstPrefetch            0      0.00%    100.00% # Number of instructions issued per FU type, per thread (Count)
system.cpu0.statIssuedInstType_0::SimdUnitStrideLoad            0      0.00%    100.00% # Number of instructions issued per FU type, per thread (Count)
system.cpu0.statIssuedInstType_0::SimdUnitStrideStore            0      0.00%    100.00% # Number of instructions issued per FU type, per thread (Count)
system.cpu0.statIssuedInstType_0::SimdUnitStrideMaskLoad            0      0.00%    100.00% # Number of instructions issued per FU type, per thread (Count)
system.cpu0.statIssuedInstType_0::SimdUnitStrideMaskStore            0      0.00%    100.00% # Number of instructions issued per FU type, per thread (Count)
system.cpu0.statIssuedInstType_0::SimdStridedLoad            0      0.00%    100.00% # Number of instructions issued per FU type, per thread (Count)
system.cpu0.statIssuedInstType_0::SimdStridedStore            0      0.00%    100.00% # Number of instructions issued per FU type, per thread (Count)
system.cpu0.statIssuedInstType_0::SimdIndexedLoad            0      0.00%    100.00% # Number of instructions issued per FU type, per thread (Count)
system.cpu0.statIssuedInstType_0::SimdIndexedStore            0      0.00%    100.00% # Number of instructions issued per FU type, per thread (Count)
system.cpu0.statIssuedInstType_0::SimdWholeRegisterLoad            0      0.00%    100.00% # Number of instructions issued per FU type, per thread (Count)
system.cpu0.statIssuedInstType_0::SimdWholeRegisterStore            0      0.00%    100.00% # Number of instructions issued per FU type, per thread (Count)
system.cpu0.statIssuedInstType_0::SimdUnitStrideFaultOnlyFirstLoad            0      0.00%    100.00% # Number of instructions issued per FU type, per thread (Count)
system.cpu0.statIssuedInstType_0::SimdUnitStrideSegmentedLoad            0      0.00%    100.00% # Number of instructions issued per FU type, per thread (Count)
system.cpu0.statIssuedInstType_0::SimdUnitStrideSegmentedStore            0      0.00%    100.00% # Number of instructions issued per FU type, per thread (Count)
system.cpu0.statIssuedInstType_0::SimdUnitStrideSegmentedFaultOnlyFirstLoad            0      0.00%    100.00% # Number of instructions issued per FU type, per thread (Count)
system.cpu0.statIssuedInstType_0::SimdStrideSegmentedLoad            0      0.00%    100.00% # Number of instructions issued per FU type, per thread (Count)
system.cpu0.statIssuedInstType_0::SimdStrideSegmentedStore            0      0.00%    100.00% # Number of instructions issued per FU type, per thread (Count)
system.cpu0.statIssuedInstType_0::SimdExt            0      0.00%    100.00% # Number of instructions issued per FU type, per thread (Count)
system.cpu0.statIssuedInstType_0::SimdFloatExt            0      0.00%    100.00% # Number of instructions issued per FU type, per thread (Count)
system.cpu0.statIssuedInstType_0::SimdConfig            0      0.00%    100.00% # Number of instructions issued per FU type, per thread (Count)
system.cpu0.statIssuedInstType_0::total     434814355                       # Number of instructions issued per FU type, per thread (Count)
system.cpu0.issueRate                        1.823818                       # Inst issue rate ((Count/Cycle))
system.cpu0.fuBusy                           14200411                       # FU busy when requested (Count)
system.cpu0.fuBusyRate                       0.032659                       # FU busy rate (busy events/executed inst) ((Count/Count))
system.cpu0.intInstQueueReads              1080774835                       # Number of integer instruction queue reads (Count)
system.cpu0.intInstQueueWrites              553128904                       # Number of integer instruction queue writes (Count)
system.cpu0.intInstQueueWakeupAccesses      410342762                       # Number of integer instruction queue wakeup accesses (Count)
system.cpu0.fpInstQueueReads                 41617304                       # Number of floating instruction queue reads (Count)
system.cpu0.fpInstQueueWrites                29417626                       # Number of floating instruction queue writes (Count)
system.cpu0.fpInstQueueWakeupAccesses        17046962                       # Number of floating instruction queue wakeup accesses (Count)
system.cpu0.vecInstQueueReads                       0                       # Number of vector instruction queue reads (Count)
system.cpu0.vecInstQueueWrites                      0                       # Number of vector instruction queue writes (Count)
system.cpu0.vecInstQueueWakeupAccesses              0                       # Number of vector instruction queue wakeup accesses (Count)
system.cpu0.intAluAccesses                  412668716                       # Number of integer alu accesses (Count)
system.cpu0.fpAluAccesses                    22251754                       # Number of floating point alu accesses (Count)
system.cpu0.vecAluAccesses                          0                       # Number of vector alu accesses (Count)
system.cpu0.numRecvResp                      92607128                       # Number of received responses (Count)
system.cpu0.numRecvRespBytes                612012742                       # Number of received response bytes (Byte)
system.cpu0.recvRespAvgBW                        2.57                       # Average bandwidth of received responses ((Byte/Cycle))
system.cpu0.recvRespAvgSize                      6.61                       # Average packet size per received response ((Byte/Count))
system.cpu0.recvRespAvgRate                      0.39                       # Average rate of received responses per cycle ((Count/Cycle))
system.cpu0.recvRespAvgRetryRate                 0.00                       # Average retry rate per received response ((Count/Count))
system.cpu0.numSendRetryResp                        0                       # Number of retry responses sent (Count)
system.cpu0.numSquashedInsts                  2461033                       # Number of squashed instructions skipped in execute (Count)
system.cpu0.numSwp                                  0                       # Number of swp insts executed (Count)
system.cpu0.timesIdled                           1559                       # Number of times that the entire CPU went into an idle state and unscheduled itself (Count)
system.cpu0.idleCycles                         188235                       # Total number of cycles that the CPU has spent unscheduled due to idling (Cycle)
system.cpu0.quiesceCycles                   387597227                       # Total number of cycles that CPU has spent quiesced or waiting for an interrupt (Cycle)
system.cpu0.MemDepUnit__0.insertedLoads      93700973                       # Number of loads inserted to the mem dependence unit. (Count)
system.cpu0.MemDepUnit__0.insertedStores     56785104                       # Number of stores inserted to the mem dependence unit. (Count)
system.cpu0.MemDepUnit__0.conflictingLoads     46683675                       # Number of conflicting loads. (Count)
system.cpu0.MemDepUnit__0.conflictingStores     21859851                       # Number of conflicting stores. (Count)
system.cpu0.MemDepUnit__1.insertedLoads             0                       # Number of loads inserted to the mem dependence unit. (Count)
system.cpu0.MemDepUnit__1.insertedStores            0                       # Number of stores inserted to the mem dependence unit. (Count)
system.cpu0.MemDepUnit__1.conflictingLoads            0                       # Number of conflicting loads. (Count)
system.cpu0.MemDepUnit__1.conflictingStores            0                       # Number of conflicting stores. (Count)
system.cpu0.MemDepUnit__2.insertedLoads             0                       # Number of loads inserted to the mem dependence unit. (Count)
system.cpu0.MemDepUnit__2.insertedStores            0                       # Number of stores inserted to the mem dependence unit. (Count)
system.cpu0.MemDepUnit__2.conflictingLoads            0                       # Number of conflicting loads. (Count)
system.cpu0.MemDepUnit__2.conflictingStores            0                       # Number of conflicting stores. (Count)
system.cpu0.MemDepUnit__3.insertedLoads             0                       # Number of loads inserted to the mem dependence unit. (Count)
system.cpu0.MemDepUnit__3.insertedStores            0                       # Number of stores inserted to the mem dependence unit. (Count)
system.cpu0.MemDepUnit__3.conflictingLoads            0                       # Number of conflicting loads. (Count)
system.cpu0.MemDepUnit__3.conflictingStores            0                       # Number of conflicting stores. (Count)
system.cpu0.branchPred.lookups_0::NoBranch            0      0.00%      0.00% # Number of BP lookups (Count)
system.cpu0.branchPred.lookups_0::Return     10663237     21.98%     21.98% # Number of BP lookups (Count)
system.cpu0.branchPred.lookups_0::CallDirect     11661011     24.03%     46.01% # Number of BP lookups (Count)
system.cpu0.branchPred.lookups_0::CallIndirect          510      0.00%     46.01% # Number of BP lookups (Count)
system.cpu0.branchPred.lookups_0::DirectCond     23598645     48.63%     94.64% # Number of BP lookups (Count)
system.cpu0.branchPred.lookups_0::DirectUncond      2598261      5.35%    100.00% # Number of BP lookups (Count)
system.cpu0.branchPred.lookups_0::IndirectCond            0      0.00%    100.00% # Number of BP lookups (Count)
system.cpu0.branchPred.lookups_0::IndirectUncond         1041      0.00%    100.00% # Number of BP lookups (Count)
system.cpu0.branchPred.lookups_0::total      48522705                       # Number of BP lookups (Count)
system.cpu0.branchPred.squashes_0::NoBranch            0      0.00%      0.00% # Number of branches that got squashed (completely removed) as an earlier branch was mispredicted. (Count)
system.cpu0.branchPred.squashes_0::Return      2661188     16.16%     16.16% # Number of branches that got squashed (completely removed) as an earlier branch was mispredicted. (Count)
system.cpu0.branchPred.squashes_0::CallDirect      3659249     22.22%     38.38% # Number of branches that got squashed (completely removed) as an earlier branch was mispredicted. (Count)
system.cpu0.branchPred.squashes_0::CallIndirect          218      0.00%     38.38% # Number of branches that got squashed (completely removed) as an earlier branch was mispredicted. (Count)
system.cpu0.branchPred.squashes_0::DirectCond      8983274     54.55%     92.94% # Number of branches that got squashed (completely removed) as an earlier branch was mispredicted. (Count)
system.cpu0.branchPred.squashes_0::DirectUncond      1162182      7.06%    100.00% # Number of branches that got squashed (completely removed) as an earlier branch was mispredicted. (Count)
system.cpu0.branchPred.squashes_0::IndirectCond            0      0.00%    100.00% # Number of branches that got squashed (completely removed) as an earlier branch was mispredicted. (Count)
system.cpu0.branchPred.squashes_0::IndirectUncond          738      0.00%    100.00% # Number of branches that got squashed (completely removed) as an earlier branch was mispredicted. (Count)
system.cpu0.branchPred.squashes_0::total     16466849                       # Number of branches that got squashed (completely removed) as an earlier branch was mispredicted. (Count)
system.cpu0.branchPred.corrected_0::NoBranch            0      0.00%      0.00% # Number of branches that got corrected but not yet commited. Branches get corrected by decode or after execute. Also a branch misprediction can be detected out-of-order. Therefore, a corrected branch might not end up beeing committed in case an even earlier branch was mispredicted (Count)
system.cpu0.branchPred.corrected_0::Return            8      0.00%      0.00% # Number of branches that got corrected but not yet commited. Branches get corrected by decode or after execute. Also a branch misprediction can be detected out-of-order. Therefore, a corrected branch might not end up beeing committed in case an even earlier branch was mispredicted (Count)
system.cpu0.branchPred.corrected_0::CallDirect          728      0.26%      0.27% # Number of branches that got corrected but not yet commited. Branches get corrected by decode or after execute. Also a branch misprediction can be detected out-of-order. Therefore, a corrected branch might not end up beeing committed in case an even earlier branch was mispredicted (Count)
system.cpu0.branchPred.corrected_0::CallIndirect          132      0.05%      0.31% # Number of branches that got corrected but not yet commited. Branches get corrected by decode or after execute. Also a branch misprediction can be detected out-of-order. Therefore, a corrected branch might not end up beeing committed in case an even earlier branch was mispredicted (Count)
system.cpu0.branchPred.corrected_0::DirectCond       274574     99.50%     99.82% # Number of branches that got corrected but not yet commited. Branches get corrected by decode or after execute. Also a branch misprediction can be detected out-of-order. Therefore, a corrected branch might not end up beeing committed in case an even earlier branch was mispredicted (Count)
system.cpu0.branchPred.corrected_0::DirectUncond          334      0.12%     99.94% # Number of branches that got corrected but not yet commited. Branches get corrected by decode or after execute. Also a branch misprediction can be detected out-of-order. Therefore, a corrected branch might not end up beeing committed in case an even earlier branch was mispredicted (Count)
system.cpu0.branchPred.corrected_0::IndirectCond            0      0.00%     99.94% # Number of branches that got corrected but not yet commited. Branches get corrected by decode or after execute. Also a branch misprediction can be detected out-of-order. Therefore, a corrected branch might not end up beeing committed in case an even earlier branch was mispredicted (Count)
system.cpu0.branchPred.corrected_0::IndirectUncond          165      0.06%    100.00% # Number of branches that got corrected but not yet commited. Branches get corrected by decode or after execute. Also a branch misprediction can be detected out-of-order. Therefore, a corrected branch might not end up beeing committed in case an even earlier branch was mispredicted (Count)
system.cpu0.branchPred.corrected_0::total       275941                       # Number of branches that got corrected but not yet commited. Branches get corrected by decode or after execute. Also a branch misprediction can be detected out-of-order. Therefore, a corrected branch might not end up beeing committed in case an even earlier branch was mispredicted (Count)
system.cpu0.branchPred.earlyResteers_0::NoBranch            0                       # Number of branches that got redirected after decode. (Count)
system.cpu0.branchPred.earlyResteers_0::Return            0                       # Number of branches that got redirected after decode. (Count)
system.cpu0.branchPred.earlyResteers_0::CallDirect            0                       # Number of branches that got redirected after decode. (Count)
system.cpu0.branchPred.earlyResteers_0::CallIndirect            0                       # Number of branches that got redirected after decode. (Count)
system.cpu0.branchPred.earlyResteers_0::DirectCond            0                       # Number of branches that got redirected after decode. (Count)
system.cpu0.branchPred.earlyResteers_0::DirectUncond            0                       # Number of branches that got redirected after decode. (Count)
system.cpu0.branchPred.earlyResteers_0::IndirectCond            0                       # Number of branches that got redirected after decode. (Count)
system.cpu0.branchPred.earlyResteers_0::IndirectUncond            0                       # Number of branches that got redirected after decode. (Count)
system.cpu0.branchPred.earlyResteers_0::total            0                       # Number of branches that got redirected after decode. (Count)
system.cpu0.branchPred.committed_0::NoBranch            0      0.00%      0.00% # Number of branches finally committed  (Count)
system.cpu0.branchPred.committed_0::Return      8002049     24.96%     24.96% # Number of branches finally committed  (Count)
system.cpu0.branchPred.committed_0::CallDirect      8001762     24.96%     49.92% # Number of branches finally committed  (Count)
system.cpu0.branchPred.committed_0::CallIndirect          292      0.00%     49.93% # Number of branches finally committed  (Count)
system.cpu0.branchPred.committed_0::DirectCond     14615365     45.59%     95.52% # Number of branches finally committed  (Count)
system.cpu0.branchPred.committed_0::DirectUncond      1436079      4.48%    100.00% # Number of branches finally committed  (Count)
system.cpu0.branchPred.committed_0::IndirectCond            0      0.00%    100.00% # Number of branches finally committed  (Count)
system.cpu0.branchPred.committed_0::IndirectUncond          303      0.00%    100.00% # Number of branches finally committed  (Count)
system.cpu0.branchPred.committed_0::total     32055850                       # Number of branches finally committed  (Count)
system.cpu0.branchPred.mispredicted_0::NoBranch            0      0.00%      0.00% # Number of committed branches that were mispredicted. (Count)
system.cpu0.branchPred.mispredicted_0::Return            0      0.00%      0.00% # Number of committed branches that were mispredicted. (Count)
system.cpu0.branchPred.mispredicted_0::CallDirect          506      0.18%      0.18% # Number of committed branches that were mispredicted. (Count)
system.cpu0.branchPred.mispredicted_0::CallIndirect          128      0.05%      0.23% # Number of committed branches that were mispredicted. (Count)
system.cpu0.branchPred.mispredicted_0::DirectCond       274328     99.66%     99.89% # Number of committed branches that were mispredicted. (Count)
system.cpu0.branchPred.mispredicted_0::DirectUncond          181      0.07%     99.95% # Number of committed branches that were mispredicted. (Count)
system.cpu0.branchPred.mispredicted_0::IndirectCond            0      0.00%     99.95% # Number of committed branches that were mispredicted. (Count)
system.cpu0.branchPred.mispredicted_0::IndirectUncond          128      0.05%    100.00% # Number of committed branches that were mispredicted. (Count)
system.cpu0.branchPred.mispredicted_0::total       275271                       # Number of committed branches that were mispredicted. (Count)
system.cpu0.branchPred.mispredictDueToPredictor_0::NoBranch            0      0.00%      0.00% # Number of committed branches that were mispredicted by the predictor. (Count)
system.cpu0.branchPred.mispredictDueToPredictor_0::Return            0      0.00%      0.00% # Number of committed branches that were mispredicted by the predictor. (Count)
system.cpu0.branchPred.mispredictDueToPredictor_0::CallDirect            0      0.00%      0.00% # Number of committed branches that were mispredicted by the predictor. (Count)
system.cpu0.branchPred.mispredictDueToPredictor_0::CallIndirect            0      0.00%      0.00% # Number of committed branches that were mispredicted by the predictor. (Count)
system.cpu0.branchPred.mispredictDueToPredictor_0::DirectCond       273687    100.00%    100.00% # Number of committed branches that were mispredicted by the predictor. (Count)
system.cpu0.branchPred.mispredictDueToPredictor_0::DirectUncond            0      0.00%    100.00% # Number of committed branches that were mispredicted by the predictor. (Count)
system.cpu0.branchPred.mispredictDueToPredictor_0::IndirectCond            0      0.00%    100.00% # Number of committed branches that were mispredicted by the predictor. (Count)
system.cpu0.branchPred.mispredictDueToPredictor_0::IndirectUncond            0      0.00%    100.00% # Number of committed branches that were mispredicted by the predictor. (Count)
system.cpu0.branchPred.mispredictDueToPredictor_0::total       273687                       # Number of committed branches that were mispredicted by the predictor. (Count)
system.cpu0.branchPred.mispredictDueToBTBMiss_0::NoBranch            0      0.00%      0.00% # Number of committed branches that were mispredicted because of a BTB miss. (Count)
system.cpu0.branchPred.mispredictDueToBTBMiss_0::Return            0      0.00%      0.00% # Number of committed branches that were mispredicted because of a BTB miss. (Count)
system.cpu0.branchPred.mispredictDueToBTBMiss_0::CallDirect          506     31.94%     31.94% # Number of committed branches that were mispredicted because of a BTB miss. (Count)
system.cpu0.branchPred.mispredictDueToBTBMiss_0::CallIndirect          128      8.08%     40.03% # Number of committed branches that were mispredicted because of a BTB miss. (Count)
system.cpu0.branchPred.mispredictDueToBTBMiss_0::DirectCond          641     40.47%     80.49% # Number of committed branches that were mispredicted because of a BTB miss. (Count)
system.cpu0.branchPred.mispredictDueToBTBMiss_0::DirectUncond          181     11.43%     91.92% # Number of committed branches that were mispredicted because of a BTB miss. (Count)
system.cpu0.branchPred.mispredictDueToBTBMiss_0::IndirectCond            0      0.00%     91.92% # Number of committed branches that were mispredicted because of a BTB miss. (Count)
system.cpu0.branchPred.mispredictDueToBTBMiss_0::IndirectUncond          128      8.08%    100.00% # Number of committed branches that were mispredicted because of a BTB miss. (Count)
system.cpu0.branchPred.mispredictDueToBTBMiss_0::total         1584                       # Number of committed branches that were mispredicted because of a BTB miss. (Count)
system.cpu0.branchPred.targetProvider_0::NoTarget     13022288     26.84%     26.84% # The component providing the target for taken branches (Count)
system.cpu0.branchPred.targetProvider_0::BTB     24836702     51.19%     78.02% # The component providing the target for taken branches (Count)
system.cpu0.branchPred.targetProvider_0::RAS     10663237     21.98%    100.00% # The component providing the target for taken branches (Count)
system.cpu0.branchPred.targetProvider_0::Indirect          478      0.00%    100.00% # The component providing the target for taken branches (Count)
system.cpu0.branchPred.targetProvider_0::total     48522705                       # The component providing the target for taken branches (Count)
system.cpu0.branchPred.targetWrong_0::NoBranch       142329     51.58%     51.58% # Number of branches where the target was incorrect or not available at prediction time. (Count)
system.cpu0.branchPred.targetWrong_0::Return       133569     48.41%     99.99% # Number of branches where the target was incorrect or not available at prediction time. (Count)
system.cpu0.branchPred.targetWrong_0::CallDirect            8      0.00%     99.99% # Number of branches where the target was incorrect or not available at prediction time. (Count)
system.cpu0.branchPred.targetWrong_0::CallIndirect           22      0.01%    100.00% # Number of branches where the target was incorrect or not available at prediction time. (Count)
system.cpu0.branchPred.targetWrong_0::DirectCond            0      0.00%    100.00% # Number of branches where the target was incorrect or not available at prediction time. (Count)
system.cpu0.branchPred.targetWrong_0::DirectUncond            0      0.00%    100.00% # Number of branches where the target was incorrect or not available at prediction time. (Count)
system.cpu0.branchPred.targetWrong_0::IndirectCond            0      0.00%    100.00% # Number of branches where the target was incorrect or not available at prediction time. (Count)
system.cpu0.branchPred.targetWrong_0::IndirectUncond            0      0.00%    100.00% # Number of branches where the target was incorrect or not available at prediction time. (Count)
system.cpu0.branchPred.targetWrong_0::total       275928                       # Number of branches where the target was incorrect or not available at prediction time. (Count)
system.cpu0.branchPred.condPredicted         23598645                       # Number of conditional branches predicted (Count)
system.cpu0.branchPred.condPredictedTaken     10580328                       # Number of conditional branches predicted as taken (Count)
system.cpu0.branchPred.condIncorrect           275941                       # Number of conditional branches incorrect (Count)
system.cpu0.branchPred.predTakenBTBMiss          1315                       # Number of branches predicted taken but missed in BTB (Count)
system.cpu0.branchPred.BTBLookups            48522705                       # Number of BTB lookups (Count)
system.cpu0.branchPred.BTBUpdates              142061                       # Number of BTB updates (Count)
system.cpu0.branchPred.BTBHits               27352750                       # Number of BTB hits (Count)
system.cpu0.branchPred.BTBHitRatio           0.563710                       # BTB Hit Ratio (Ratio)
system.cpu0.branchPred.BTBMispredicted           1800                       # Number BTB mispredictions. No target found or target wrong (Count)
system.cpu0.branchPred.indirectLookups           1551                       # Number of indirect predictor lookups. (Count)
system.cpu0.branchPred.indirectHits               478                       # Number of indirect target hits. (Count)
system.cpu0.branchPred.indirectMisses            1073                       # Number of indirect misses. (Count)
system.cpu0.branchPred.indirectMispredicted            0                       # Number of mispredicted indirect branches. (Count)
system.cpu0.branchPred.btb.lookups::NoBranch            0      0.00%      0.00% # Number of BTB lookups (Count)
system.cpu0.branchPred.btb.lookups::Return     10663237     21.98%     21.98% # Number of BTB lookups (Count)
system.cpu0.branchPred.btb.lookups::CallDirect     11661011     24.03%     46.01% # Number of BTB lookups (Count)
system.cpu0.branchPred.btb.lookups::CallIndirect          510      0.00%     46.01% # Number of BTB lookups (Count)
system.cpu0.branchPred.btb.lookups::DirectCond     23598645     48.63%     94.64% # Number of BTB lookups (Count)
system.cpu0.branchPred.btb.lookups::DirectUncond      2598261      5.35%    100.00% # Number of BTB lookups (Count)
system.cpu0.branchPred.btb.lookups::IndirectCond            0      0.00%    100.00% # Number of BTB lookups (Count)
system.cpu0.branchPred.btb.lookups::IndirectUncond         1041      0.00%    100.00% # Number of BTB lookups (Count)
system.cpu0.branchPred.btb.lookups::total     48522705                       # Number of BTB lookups (Count)
system.cpu0.branchPred.btb.misses::NoBranch            0      0.00%      0.00% # Number of BTB misses (Count)
system.cpu0.branchPred.btb.misses::Return     10663237     50.37%     50.37% # Number of BTB misses (Count)
system.cpu0.branchPred.btb.misses::CallDirect         1002      0.00%     50.37% # Number of BTB misses (Count)
system.cpu0.branchPred.btb.misses::CallIndirect          510      0.00%     50.38% # Number of BTB misses (Count)
system.cpu0.branchPred.btb.misses::DirectCond     10503681     49.62%     99.99% # Number of BTB misses (Count)
system.cpu0.branchPred.btb.misses::DirectUncond          484      0.00%    100.00% # Number of BTB misses (Count)
system.cpu0.branchPred.btb.misses::IndirectCond            0      0.00%    100.00% # Number of BTB misses (Count)
system.cpu0.branchPred.btb.misses::IndirectUncond         1041      0.00%    100.00% # Number of BTB misses (Count)
system.cpu0.branchPred.btb.misses::total     21169955                       # Number of BTB misses (Count)
system.cpu0.branchPred.btb.updates::NoBranch            0      0.00%      0.00% # Number of BTB updates (Count)
system.cpu0.branchPred.btb.updates::Return            0      0.00%      0.00% # Number of BTB updates (Count)
system.cpu0.branchPred.btb.updates::CallDirect          728      0.51%      0.51% # Number of BTB updates (Count)
system.cpu0.branchPred.btb.updates::CallIndirect            0      0.00%      0.51% # Number of BTB updates (Count)
system.cpu0.branchPred.btb.updates::DirectCond       140999     99.25%     99.76% # Number of BTB updates (Count)
system.cpu0.branchPred.btb.updates::DirectUncond          334      0.24%    100.00% # Number of BTB updates (Count)
system.cpu0.branchPred.btb.updates::IndirectCond            0      0.00%    100.00% # Number of BTB updates (Count)
system.cpu0.branchPred.btb.updates::IndirectUncond            0      0.00%    100.00% # Number of BTB updates (Count)
system.cpu0.branchPred.btb.updates::total       142061                       # Number of BTB updates (Count)
system.cpu0.branchPred.btb.mispredict::NoBranch            0      0.00%      0.00% # Number of BTB mispredictions. No target found or target wrong. (Count)
system.cpu0.branchPred.btb.mispredict::Return            0      0.00%      0.00% # Number of BTB mispredictions. No target found or target wrong. (Count)
system.cpu0.branchPred.btb.mispredict::CallDirect          728      0.51%      0.51% # Number of BTB mispredictions. No target found or target wrong. (Count)
system.cpu0.branchPred.btb.mispredict::CallIndirect            0      0.00%      0.51% # Number of BTB mispredictions. No target found or target wrong. (Count)
system.cpu0.branchPred.btb.mispredict::DirectCond       140999     99.25%     99.76% # Number of BTB mispredictions. No target found or target wrong. (Count)
system.cpu0.branchPred.btb.mispredict::DirectUncond          334      0.24%    100.00% # Number of BTB mispredictions. No target found or target wrong. (Count)
system.cpu0.branchPred.btb.mispredict::IndirectCond            0      0.00%    100.00% # Number of BTB mispredictions. No target found or target wrong. (Count)
system.cpu0.branchPred.btb.mispredict::IndirectUncond            0      0.00%    100.00% # Number of BTB mispredictions. No target found or target wrong. (Count)
system.cpu0.branchPred.btb.mispredict::total       142061                       # Number of BTB mispredictions. No target found or target wrong. (Count)
system.cpu0.branchPred.btb.power_state.pwrStateResidencyTicks::UNDEFINED 313003067000                       # Cumulative time (in ticks) in various power states (Tick)
system.cpu0.branchPred.indirectBranchPred.lookups         1551                       # Number of lookups (Count)
system.cpu0.branchPred.indirectBranchPred.hits          478                       # Number of hits of a tag (Count)
system.cpu0.branchPred.indirectBranchPred.misses         1073                       # Number of misses (Count)
system.cpu0.branchPred.indirectBranchPred.targetRecords          297                       # Number of targets that where recorded/installed in the cache (Count)
system.cpu0.branchPred.indirectBranchPred.indirectRecords         1848                       # Number of indirect branches/calls recorded in the indirect hist (Count)
system.cpu0.branchPred.indirectBranchPred.speculativeOverflows            1                       # Number of times more than the allowed capacity for speculative branches/calls where in flight and destroy the path history (Count)
system.cpu0.branchPred.ras.pushes            14322709                       # Number of times a PC was pushed onto the RAS (Count)
system.cpu0.branchPred.ras.pops              14322704                       # Number of times a PC was poped from the RAS (Count)
system.cpu0.branchPred.ras.squashes           6320655                       # Number of times the stack operation was squashed due to wrong speculation. (Count)
system.cpu0.branchPred.ras.used               8002049                       # Number of times the RAS is the provider (Count)
system.cpu0.branchPred.ras.correct            8002049                       # Number of times the RAS is the provider and the prediction is correct (Count)
system.cpu0.branchPred.ras.incorrect                0                       # Number of times the RAS is the provider and the prediction is wrong (Count)
system.cpu0.commit.commitSquashedInsts      118033074                       # The number of squashed insts skipped by commit (Count)
system.cpu0.commit.commitNonSpecStalls        6000616                       # The number of times commit has been forced to stall to communicate backwards (Count)
system.cpu0.commit.branchMispredicts           274943                       # The number of times a branch was mispredicted (Count)
system.cpu0.commit.numCommittedDist::samples    222892350                       # Number of insts commited each cycle (Count)
system.cpu0.commit.numCommittedDist::mean     1.540837                       # Number of insts commited each cycle (Count)
system.cpu0.commit.numCommittedDist::stdev     2.643580                       # Number of insts commited each cycle (Count)
system.cpu0.commit.numCommittedDist::underflows            0      0.00%      0.00% # Number of insts commited each cycle (Count)
system.cpu0.commit.numCommittedDist::0      138601624     62.18%     62.18% # Number of insts commited each cycle (Count)
system.cpu0.commit.numCommittedDist::1       27628311     12.40%     74.58% # Number of insts commited each cycle (Count)
system.cpu0.commit.numCommittedDist::2        5354546      2.40%     76.98% # Number of insts commited each cycle (Count)
system.cpu0.commit.numCommittedDist::3       13607422      6.10%     83.09% # Number of insts commited each cycle (Count)
system.cpu0.commit.numCommittedDist::4        3124869      1.40%     84.49% # Number of insts commited each cycle (Count)
system.cpu0.commit.numCommittedDist::5        2365497      1.06%     85.55% # Number of insts commited each cycle (Count)
system.cpu0.commit.numCommittedDist::6        5338695      2.40%     87.94% # Number of insts commited each cycle (Count)
system.cpu0.commit.numCommittedDist::7        7049182      3.16%     91.11% # Number of insts commited each cycle (Count)
system.cpu0.commit.numCommittedDist::8       19822204      8.89%    100.00% # Number of insts commited each cycle (Count)
system.cpu0.commit.numCommittedDist::overflows            0      0.00%    100.00% # Number of insts commited each cycle (Count)
system.cpu0.commit.numCommittedDist::min_value            0                       # Number of insts commited each cycle (Count)
system.cpu0.commit.numCommittedDist::max_value            8                       # Number of insts commited each cycle (Count)
system.cpu0.commit.numCommittedDist::total    222892350                       # Number of insts commited each cycle (Count)
system.cpu0.commit.amos                             0                       # Number of atomic instructions committed (Count)
system.cpu0.commit.membars                    4000410                       # Number of memory barriers committed (Count)
system.cpu0.commit.functionCalls              8002054                       # Number of function calls committed. (Count)
system.cpu0.commit.committedInstType_0::No_OpClass      8002545      2.33%      2.33% # Class of committed instruction (Count)
system.cpu0.commit.committedInstType_0::IntAlu    219843374     64.01%     66.34% # Class of committed instruction (Count)
system.cpu0.commit.committedInstType_0::IntMult      2000168      0.58%     66.92% # Class of committed instruction (Count)
system.cpu0.commit.committedInstType_0::IntDiv           77      0.00%     66.92% # Class of committed instruction (Count)
system.cpu0.commit.committedInstType_0::FloatAdd      2001690      0.58%     67.51% # Class of committed instruction (Count)
system.cpu0.commit.committedInstType_0::FloatCmp            0      0.00%     67.51% # Class of committed instruction (Count)
system.cpu0.commit.committedInstType_0::FloatCvt            0      0.00%     67.51% # Class of committed instruction (Count)
system.cpu0.commit.committedInstType_0::FloatMult            0      0.00%     67.51% # Class of committed instruction (Count)
system.cpu0.commit.committedInstType_0::FloatMultAcc            0      0.00%     67.51% # Class of committed instruction (Count)
system.cpu0.commit.committedInstType_0::FloatDiv            0      0.00%     67.51% # Class of committed instruction (Count)
system.cpu0.commit.committedInstType_0::FloatMisc            0      0.00%     67.51% # Class of committed instruction (Count)
system.cpu0.commit.committedInstType_0::FloatSqrt            0      0.00%     67.51% # Class of committed instruction (Count)
system.cpu0.commit.committedInstType_0::SimdAdd           26      0.00%     67.51% # Class of committed instruction (Count)
system.cpu0.commit.committedInstType_0::SimdAddAcc            0      0.00%     67.51% # Class of committed instruction (Count)
system.cpu0.commit.committedInstType_0::SimdAlu         1006      0.00%     67.51% # Class of committed instruction (Count)
system.cpu0.commit.committedInstType_0::SimdCmp            6      0.00%     67.51% # Class of committed instruction (Count)
system.cpu0.commit.committedInstType_0::SimdCvt          464      0.00%     67.51% # Class of committed instruction (Count)
system.cpu0.commit.committedInstType_0::SimdMisc      2002390      0.58%     68.09% # Class of committed instruction (Count)
system.cpu0.commit.committedInstType_0::SimdMult            0      0.00%     68.09% # Class of committed instruction (Count)
system.cpu0.commit.committedInstType_0::SimdMultAcc            0      0.00%     68.09% # Class of committed instruction (Count)
system.cpu0.commit.committedInstType_0::SimdMatMultAcc            0      0.00%     68.09% # Class of committed instruction (Count)
system.cpu0.commit.committedInstType_0::SimdShift            0      0.00%     68.09% # Class of committed instruction (Count)
system.cpu0.commit.committedInstType_0::SimdShiftAcc            0      0.00%     68.09% # Class of committed instruction (Count)
system.cpu0.commit.committedInstType_0::SimdDiv            0      0.00%     68.09% # Class of committed instruction (Count)
system.cpu0.commit.committedInstType_0::SimdSqrt            0      0.00%     68.09% # Class of committed instruction (Count)
system.cpu0.commit.committedInstType_0::SimdFloatAdd           19      0.00%     68.09% # Class of committed instruction (Count)
system.cpu0.commit.committedInstType_0::SimdFloatAlu            0      0.00%     68.09% # Class of committed instruction (Count)
system.cpu0.commit.committedInstType_0::SimdFloatCmp            0      0.00%     68.09% # Class of committed instruction (Count)
system.cpu0.commit.committedInstType_0::SimdFloatCvt            9      0.00%     68.09% # Class of committed instruction (Count)
system.cpu0.commit.committedInstType_0::SimdFloatDiv            2      0.00%     68.09% # Class of committed instruction (Count)
system.cpu0.commit.committedInstType_0::SimdFloatMisc            0      0.00%     68.09% # Class of committed instruction (Count)
system.cpu0.commit.committedInstType_0::SimdFloatMult           12      0.00%     68.09% # Class of committed instruction (Count)
system.cpu0.commit.committedInstType_0::SimdFloatMultAcc            0      0.00%     68.09% # Class of committed instruction (Count)
system.cpu0.commit.committedInstType_0::SimdFloatMatMultAcc            0      0.00%     68.09% # Class of committed instruction (Count)
system.cpu0.commit.committedInstType_0::SimdFloatSqrt            0      0.00%     68.09% # Class of committed instruction (Count)
system.cpu0.commit.committedInstType_0::SimdReduceAdd            0      0.00%     68.09% # Class of committed instruction (Count)
system.cpu0.commit.committedInstType_0::SimdReduceAlu            0      0.00%     68.09% # Class of committed instruction (Count)
system.cpu0.commit.committedInstType_0::SimdReduceCmp            0      0.00%     68.09% # Class of committed instruction (Count)
system.cpu0.commit.committedInstType_0::SimdFloatReduceAdd            0      0.00%     68.09% # Class of committed instruction (Count)
system.cpu0.commit.committedInstType_0::SimdFloatReduceCmp            0      0.00%     68.09% # Class of committed instruction (Count)
system.cpu0.commit.committedInstType_0::SimdAes            0      0.00%     68.09% # Class of committed instruction (Count)
system.cpu0.commit.committedInstType_0::SimdAesMix            0      0.00%     68.09% # Class of committed instruction (Count)
system.cpu0.commit.committedInstType_0::SimdSha1Hash            0      0.00%     68.09% # Class of committed instruction (Count)
system.cpu0.commit.committedInstType_0::SimdSha1Hash2            0      0.00%     68.09% # Class of committed instruction (Count)
system.cpu0.commit.committedInstType_0::SimdSha256Hash            0      0.00%     68.09% # Class of committed instruction (Count)
system.cpu0.commit.committedInstType_0::SimdSha256Hash2            0      0.00%     68.09% # Class of committed instruction (Count)
system.cpu0.commit.committedInstType_0::SimdShaSigma2            0      0.00%     68.09% # Class of committed instruction (Count)
system.cpu0.commit.committedInstType_0::SimdShaSigma3            0      0.00%     68.09% # Class of committed instruction (Count)
system.cpu0.commit.committedInstType_0::SimdPredAlu            0      0.00%     68.09% # Class of committed instruction (Count)
system.cpu0.commit.committedInstType_0::Matrix            0      0.00%     68.09% # Class of committed instruction (Count)
system.cpu0.commit.committedInstType_0::MatrixMov            0      0.00%     68.09% # Class of committed instruction (Count)
system.cpu0.commit.committedInstType_0::MatrixOP            0      0.00%     68.09% # Class of committed instruction (Count)
system.cpu0.commit.committedInstType_0::MemRead     69322440     20.18%     88.28% # Class of committed instruction (Count)
system.cpu0.commit.committedInstType_0::MemWrite     37263273     10.85%     99.13% # Class of committed instruction (Count)
system.cpu0.commit.committedInstType_0::FloatMemRead       501010      0.15%     99.27% # Class of committed instruction (Count)
system.cpu0.commit.committedInstType_0::FloatMemWrite      2502195      0.73%    100.00% # Class of committed instruction (Count)
system.cpu0.commit.committedInstType_0::IprAccess            0      0.00%    100.00% # Class of committed instruction (Count)
system.cpu0.commit.committedInstType_0::InstPrefetch            0      0.00%    100.00% # Class of committed instruction (Count)
system.cpu0.commit.committedInstType_0::SimdUnitStrideLoad            0      0.00%    100.00% # Class of committed instruction (Count)
system.cpu0.commit.committedInstType_0::SimdUnitStrideStore            0      0.00%    100.00% # Class of committed instruction (Count)
system.cpu0.commit.committedInstType_0::SimdUnitStrideMaskLoad            0      0.00%    100.00% # Class of committed instruction (Count)
system.cpu0.commit.committedInstType_0::SimdUnitStrideMaskStore            0      0.00%    100.00% # Class of committed instruction (Count)
system.cpu0.commit.committedInstType_0::SimdStridedLoad            0      0.00%    100.00% # Class of committed instruction (Count)
system.cpu0.commit.committedInstType_0::SimdStridedStore            0      0.00%    100.00% # Class of committed instruction (Count)
system.cpu0.commit.committedInstType_0::SimdIndexedLoad            0      0.00%    100.00% # Class of committed instruction (Count)
system.cpu0.commit.committedInstType_0::SimdIndexedStore            0      0.00%    100.00% # Class of committed instruction (Count)
system.cpu0.commit.committedInstType_0::SimdWholeRegisterLoad            0      0.00%    100.00% # Class of committed instruction (Count)
system.cpu0.commit.committedInstType_0::SimdWholeRegisterStore            0      0.00%    100.00% # Class of committed instruction (Count)
system.cpu0.commit.committedInstType_0::SimdUnitStrideFaultOnlyFirstLoad            0      0.00%    100.00% # Class of committed instruction (Count)
system.cpu0.commit.committedInstType_0::SimdUnitStrideSegmentedLoad            0      0.00%    100.00% # Class of committed instruction (Count)
system.cpu0.commit.committedInstType_0::SimdUnitStrideSegmentedStore            0      0.00%    100.00% # Class of committed instruction (Count)
system.cpu0.commit.committedInstType_0::SimdUnitStrideSegmentedFaultOnlyFirstLoad            0      0.00%    100.00% # Class of committed instruction (Count)
system.cpu0.commit.committedInstType_0::SimdStrideSegmentedLoad            0      0.00%    100.00% # Class of committed instruction (Count)
system.cpu0.commit.committedInstType_0::SimdStrideSegmentedStore            0      0.00%    100.00% # Class of committed instruction (Count)
system.cpu0.commit.committedInstType_0::SimdExt            0      0.00%    100.00% # Class of committed instruction (Count)
system.cpu0.commit.committedInstType_0::SimdFloatExt            0      0.00%    100.00% # Class of committed instruction (Count)
system.cpu0.commit.committedInstType_0::SimdConfig            0      0.00%    100.00% # Class of committed instruction (Count)
system.cpu0.commit.committedInstType_0::total    343440706                       # Class of committed instruction (Count)
system.cpu0.commit.commitEligibleSamples     19822204                       # number cycles where commit BW limit reached (Cycle)
system.cpu0.commitStats0.numInsts           199195784                       # Number of instructions committed (thread level) (Count)
system.cpu0.commitStats0.numOps             343440706                       # Number of ops (including micro ops) committed (thread level) (Count)
system.cpu0.commitStats0.numInstsNotNOP     199195784                       # Number of instructions committed excluding NOPs or prefetches (Count)
system.cpu0.commitStats0.numOpsNotNOP       343440706                       # Number of Ops (including micro ops) Simulated (Count)
system.cpu0.commitStats0.cpi                 1.196857                       # CPI: cycles per instruction (thread level) ((Cycle/Count))
system.cpu0.commitStats0.ipc                 0.835522                       # IPC: instructions per cycle (thread level) ((Count/Cycle))
system.cpu0.commitStats0.numMemRefs         109588918                       # Number of memory references committed (Count)
system.cpu0.commitStats0.numFpInsts           8009880                       # Number of float instructions (Count)
system.cpu0.commitStats0.numIntInsts        328131709                       # Number of integer instructions (Count)
system.cpu0.commitStats0.numLoadInsts        69823450                       # Number of load instructions (Count)
system.cpu0.commitStats0.numStoreInsts       39765468                       # Number of store instructions (Count)
system.cpu0.commitStats0.numVecInsts                0                       # Number of vector instructions (Count)
system.cpu0.commitStats0.committedInstType::No_OpClass      8002545      2.33%      2.33% # Class of committed instruction. (Count)
system.cpu0.commitStats0.committedInstType::IntAlu    219843374     64.01%     66.34% # Class of committed instruction. (Count)
system.cpu0.commitStats0.committedInstType::IntMult      2000168      0.58%     66.92% # Class of committed instruction. (Count)
system.cpu0.commitStats0.committedInstType::IntDiv           77      0.00%     66.92% # Class of committed instruction. (Count)
system.cpu0.commitStats0.committedInstType::FloatAdd      2001690      0.58%     67.51% # Class of committed instruction. (Count)
system.cpu0.commitStats0.committedInstType::FloatCmp            0      0.00%     67.51% # Class of committed instruction. (Count)
system.cpu0.commitStats0.committedInstType::FloatCvt            0      0.00%     67.51% # Class of committed instruction. (Count)
system.cpu0.commitStats0.committedInstType::FloatMult            0      0.00%     67.51% # Class of committed instruction. (Count)
system.cpu0.commitStats0.committedInstType::FloatMultAcc            0      0.00%     67.51% # Class of committed instruction. (Count)
system.cpu0.commitStats0.committedInstType::FloatDiv            0      0.00%     67.51% # Class of committed instruction. (Count)
system.cpu0.commitStats0.committedInstType::FloatMisc            0      0.00%     67.51% # Class of committed instruction. (Count)
system.cpu0.commitStats0.committedInstType::FloatSqrt            0      0.00%     67.51% # Class of committed instruction. (Count)
system.cpu0.commitStats0.committedInstType::SimdAdd           26      0.00%     67.51% # Class of committed instruction. (Count)
system.cpu0.commitStats0.committedInstType::SimdAddAcc            0      0.00%     67.51% # Class of committed instruction. (Count)
system.cpu0.commitStats0.committedInstType::SimdAlu         1006      0.00%     67.51% # Class of committed instruction. (Count)
system.cpu0.commitStats0.committedInstType::SimdCmp            6      0.00%     67.51% # Class of committed instruction. (Count)
system.cpu0.commitStats0.committedInstType::SimdCvt          464      0.00%     67.51% # Class of committed instruction. (Count)
system.cpu0.commitStats0.committedInstType::SimdMisc      2002390      0.58%     68.09% # Class of committed instruction. (Count)
system.cpu0.commitStats0.committedInstType::SimdMult            0      0.00%     68.09% # Class of committed instruction. (Count)
system.cpu0.commitStats0.committedInstType::SimdMultAcc            0      0.00%     68.09% # Class of committed instruction. (Count)
system.cpu0.commitStats0.committedInstType::SimdMatMultAcc            0      0.00%     68.09% # Class of committed instruction. (Count)
system.cpu0.commitStats0.committedInstType::SimdShift            0      0.00%     68.09% # Class of committed instruction. (Count)
system.cpu0.commitStats0.committedInstType::SimdShiftAcc            0      0.00%     68.09% # Class of committed instruction. (Count)
system.cpu0.commitStats0.committedInstType::SimdDiv            0      0.00%     68.09% # Class of committed instruction. (Count)
system.cpu0.commitStats0.committedInstType::SimdSqrt            0      0.00%     68.09% # Class of committed instruction. (Count)
system.cpu0.commitStats0.committedInstType::SimdFloatAdd           19      0.00%     68.09% # Class of committed instruction. (Count)
system.cpu0.commitStats0.committedInstType::SimdFloatAlu            0      0.00%     68.09% # Class of committed instruction. (Count)
system.cpu0.commitStats0.committedInstType::SimdFloatCmp            0      0.00%     68.09% # Class of committed instruction. (Count)
system.cpu0.commitStats0.committedInstType::SimdFloatCvt            9      0.00%     68.09% # Class of committed instruction. (Count)
system.cpu0.commitStats0.committedInstType::SimdFloatDiv            2      0.00%     68.09% # Class of committed instruction. (Count)
system.cpu0.commitStats0.committedInstType::SimdFloatMisc            0      0.00%     68.09% # Class of committed instruction. (Count)
system.cpu0.commitStats0.committedInstType::SimdFloatMult           12      0.00%     68.09% # Class of committed instruction. (Count)
system.cpu0.commitStats0.committedInstType::SimdFloatMultAcc            0      0.00%     68.09% # Class of committed instruction. (Count)
system.cpu0.commitStats0.committedInstType::SimdFloatMatMultAcc            0      0.00%     68.09% # Class of committed instruction. (Count)
system.cpu0.commitStats0.committedInstType::SimdFloatSqrt            0      0.00%     68.09% # Class of committed instruction. (Count)
system.cpu0.commitStats0.committedInstType::SimdReduceAdd            0      0.00%     68.09% # Class of committed instruction. (Count)
system.cpu0.commitStats0.committedInstType::SimdReduceAlu            0      0.00%     68.09% # Class of committed instruction. (Count)
system.cpu0.commitStats0.committedInstType::SimdReduceCmp            0      0.00%     68.09% # Class of committed instruction. (Count)
system.cpu0.commitStats0.committedInstType::SimdFloatReduceAdd            0      0.00%     68.09% # Class of committed instruction. (Count)
system.cpu0.commitStats0.committedInstType::SimdFloatReduceCmp            0      0.00%     68.09% # Class of committed instruction. (Count)
system.cpu0.commitStats0.committedInstType::SimdAes            0      0.00%     68.09% # Class of committed instruction. (Count)
system.cpu0.commitStats0.committedInstType::SimdAesMix            0      0.00%     68.09% # Class of committed instruction. (Count)
system.cpu0.commitStats0.committedInstType::SimdSha1Hash            0      0.00%     68.09% # Class of committed instruction. (Count)
system.cpu0.commitStats0.committedInstType::SimdSha1Hash2            0      0.00%     68.09% # Class of committed instruction. (Count)
system.cpu0.commitStats0.committedInstType::SimdSha256Hash            0      0.00%     68.09% # Class of committed instruction. (Count)
system.cpu0.commitStats0.committedInstType::SimdSha256Hash2            0      0.00%     68.09% # Class of committed instruction. (Count)
system.cpu0.commitStats0.committedInstType::SimdShaSigma2            0      0.00%     68.09% # Class of committed instruction. (Count)
system.cpu0.commitStats0.committedInstType::SimdShaSigma3            0      0.00%     68.09% # Class of committed instruction. (Count)
system.cpu0.commitStats0.committedInstType::SimdPredAlu            0      0.00%     68.09% # Class of committed instruction. (Count)
system.cpu0.commitStats0.committedInstType::Matrix            0      0.00%     68.09% # Class of committed instruction. (Count)
system.cpu0.commitStats0.committedInstType::MatrixMov            0      0.00%     68.09% # Class of committed instruction. (Count)
system.cpu0.commitStats0.committedInstType::MatrixOP            0      0.00%     68.09% # Class of committed instruction. (Count)
system.cpu0.commitStats0.committedInstType::MemRead     69322440     20.18%     88.28% # Class of committed instruction. (Count)
system.cpu0.commitStats0.committedInstType::MemWrite     37263273     10.85%     99.13% # Class of committed instruction. (Count)
system.cpu0.commitStats0.committedInstType::FloatMemRead       501010      0.15%     99.27% # Class of committed instruction. (Count)
system.cpu0.commitStats0.committedInstType::FloatMemWrite      2502195      0.73%    100.00% # Class of committed instruction. (Count)
system.cpu0.commitStats0.committedInstType::IprAccess            0      0.00%    100.00% # Class of committed instruction. (Count)
system.cpu0.commitStats0.committedInstType::InstPrefetch            0      0.00%    100.00% # Class of committed instruction. (Count)
system.cpu0.commitStats0.committedInstType::SimdUnitStrideLoad            0      0.00%    100.00% # Class of committed instruction. (Count)
system.cpu0.commitStats0.committedInstType::SimdUnitStrideStore            0      0.00%    100.00% # Class of committed instruction. (Count)
system.cpu0.commitStats0.committedInstType::SimdUnitStrideMaskLoad            0      0.00%    100.00% # Class of committed instruction. (Count)
system.cpu0.commitStats0.committedInstType::SimdUnitStrideMaskStore            0      0.00%    100.00% # Class of committed instruction. (Count)
system.cpu0.commitStats0.committedInstType::SimdStridedLoad            0      0.00%    100.00% # Class of committed instruction. (Count)
system.cpu0.commitStats0.committedInstType::SimdStridedStore            0      0.00%    100.00% # Class of committed instruction. (Count)
system.cpu0.commitStats0.committedInstType::SimdIndexedLoad            0      0.00%    100.00% # Class of committed instruction. (Count)
system.cpu0.commitStats0.committedInstType::SimdIndexedStore            0      0.00%    100.00% # Class of committed instruction. (Count)
system.cpu0.commitStats0.committedInstType::SimdWholeRegisterLoad            0      0.00%    100.00% # Class of committed instruction. (Count)
system.cpu0.commitStats0.committedInstType::SimdWholeRegisterStore            0      0.00%    100.00% # Class of committed instruction. (Count)
system.cpu0.commitStats0.committedInstType::SimdUnitStrideFaultOnlyFirstLoad            0      0.00%    100.00% # Class of committed instruction. (Count)
system.cpu0.commitStats0.committedInstType::SimdUnitStrideSegmentedLoad            0      0.00%    100.00% # Class of committed instruction. (Count)
system.cpu0.commitStats0.committedInstType::SimdUnitStrideSegmentedStore            0      0.00%    100.00% # Class of committed instruction. (Count)
system.cpu0.commitStats0.committedInstType::SimdUnitStrideSegmentedFaultOnlyFirstLoad            0      0.00%    100.00% # Class of committed instruction. (Count)
[...]
system.membus.snoopFanout::samples            1429836                       # Request fanout histogram (Count)
system.membus.snoopFanout::mean                     0                       # Request fanout histogram (Count)
system.membus.snoopFanout::stdev                    0                       # Request fanout histogram (Count)
system.membus.snoopFanout::underflows               0      0.00%      0.00% # Request fanout histogram (Count)
system.membus.snoopFanout::0                  1429836    100.00%    100.00% # Request fanout histogram (Count)
system.membus.snoopFanout::1                        0      0.00%    100.00% # Request fanout histogram (Count)
system.membus.snoopFanout::overflows                0      0.00%    100.00% # Request fanout histogram (Count)
system.membus.snoopFanout::min_value                0                       # Request fanout histogram (Count)
system.membus.snoopFanout::max_value                0                       # Request fanout histogram (Count)
system.membus.snoopFanout::total              1429836                       # Request fanout histogram (Count)
system.membus.power_state.pwrStateResidencyTicks::UNDEFINED 313003067000                       # Cumulative time (in ticks) in various power states (Tick)
system.membus.reqLayer16.occupancy         6836806500                       # Layer occupancy (ticks) (Tick)
system.membus.reqLayer16.utilization              0.0                       # Layer utilization (Ratio)
system.membus.respLayer1.occupancy         7586586500                       # Layer occupancy (ticks) (Tick)
system.membus.respLayer1.utilization              0.0                       # Layer utilization (Ratio)
system.membus.snoop_filter.totRequests        2828245                       # Total number of requests made to the snoop filter. (Count)
system.membus.snoop_filter.hitSingleRequests      1412123                       # Number of requests hitting in the snoop filter with a single holder of the requested data. (Count)
system.membus.snoop_filter.hitMultiRequests            0                       # Number of requests hitting in the snoop filter with multiple (>1) holders of the requested data. (Count)
system.membus.snoop_filter.totSnoops                0                       # Total number of snoops made to the snoop filter. (Count)
system.membus.snoop_filter.hitSingleSnoops            0                       # Number of snoops hitting in the snoop filter with a single holder of the requested data. (Count)
system.membus.snoop_filter.hitMultiSnoops            0                       # Number of snoops hitting in the snoop filter with multiple (>1) holders of the requested data. (Count)
system.tol2bus.transDist::ReadResp             765460                       # Transaction distribution (Count)
system.tol2bus.transDist::ReadRespWithInvalidate            3                       # Transaction distribution (Count)
system.tol2bus.transDist::WritebackDirty      2121684                       # Transaction distribution (Count)
system.tol2bus.transDist::WritebackClean         3365                       # Transaction distribution (Count)
system.tol2bus.transDist::CleanEvict          1185635                       # Transaction distribution (Count)
system.tol2bus.transDist::UpgradeReq             1955                       # Transaction distribution (Count)
system.tol2bus.transDist::UpgradeResp            1955                       # Transaction distribution (Count)
system.tol2bus.transDist::ReadExReq            963069                       # Transaction distribution (Count)
system.tol2bus.transDist::ReadExResp           963069                       # Transaction distribution (Count)
system.tol2bus.transDist::ReadCleanReq           5146                       # Transaction distribution (Count)
system.tol2bus.transDist::ReadSharedReq        760318                       # Transaction distribution (Count)
system.tol2bus.pktCount_system.cpu0.icache.mem_side_port::system.l2.cpu_side_port         7576                       # Packet count per connected requestor and responder (Count)
system.tol2bus.pktCount_system.cpu0.dcache.mem_side_port::system.l2.cpu_side_port      1304884                       # Packet count per connected requestor and responder (Count)
system.tol2bus.pktCount_system.cpu1.icache.mem_side_port::system.l2.cpu_side_port         1017                       # Packet count per connected requestor and responder (Count)
system.tol2bus.pktCount_system.cpu1.dcache.mem_side_port::system.l2.cpu_side_port       775556                       # Packet count per connected requestor and responder (Count)
system.tol2bus.pktCount_system.cpu2.icache.mem_side_port::system.l2.cpu_side_port          763                       # Packet count per connected requestor and responder (Count)
system.tol2bus.pktCount_system.cpu2.dcache.mem_side_port::system.l2.cpu_side_port       365773                       # Packet count per connected requestor and responder (Count)
system.tol2bus.pktCount_system.cpu3.icache.mem_side_port::system.l2.cpu_side_port          602                       # Packet count per connected requestor and responder (Count)
system.tol2bus.pktCount_system.cpu3.dcache.mem_side_port::system.l2.cpu_side_port       296614                       # Packet count per connected requestor and responder (Count)
system.tol2bus.pktCount_system.cpu4.icache.mem_side_port::system.l2.cpu_side_port          934                       # Packet count per connected requestor and responder (Count)
system.tol2bus.pktCount_system.cpu4.dcache.mem_side_port::system.l2.cpu_side_port       477629                       # Packet count per connected requestor and responder (Count)
system.tol2bus.pktCount_system.cpu5.icache.mem_side_port::system.l2.cpu_side_port          953                       # Packet count per connected requestor and responder (Count)
system.tol2bus.pktCount_system.cpu5.dcache.mem_side_port::system.l2.cpu_side_port       775284                       # Packet count per connected requestor and responder (Count)
system.tol2bus.pktCount_system.cpu6.icache.mem_side_port::system.l2.cpu_side_port          996                       # Packet count per connected requestor and responder (Count)
system.tol2bus.pktCount_system.cpu6.dcache.mem_side_port::system.l2.cpu_side_port       775017                       # Packet count per connected requestor and responder (Count)
system.tol2bus.pktCount_system.cpu7.icache.mem_side_port::system.l2.cpu_side_port          813                       # Packet count per connected requestor and responder (Count)
system.tol2bus.pktCount_system.cpu7.dcache.mem_side_port::system.l2.cpu_side_port       365800                       # Packet count per connected requestor and responder (Count)
system.tol2bus.pktCount::total                5150211                       # Packet count per connected requestor and responder (Count)
system.tol2bus.pktSize_system.cpu0.icache.mem_side_port::system.l2.cpu_side_port       317696                       # Cumulative packet size per connected requestor and responder (Byte)
system.tol2bus.pktSize_system.cpu0.dcache.mem_side_port::system.l2.cpu_side_port     48197120                       # Cumulative packet size per connected requestor and responder (Byte)
system.tol2bus.pktSize_system.cpu1.icache.mem_side_port::system.l2.cpu_side_port        38528                       # Cumulative packet size per connected requestor and responder (Byte)
system.tol2bus.pktSize_system.cpu1.dcache.mem_side_port::system.l2.cpu_side_port     28327872                       # Cumulative packet size per connected requestor and responder (Byte)
system.tol2bus.pktSize_system.cpu2.icache.mem_side_port::system.l2.cpu_side_port        28096                       # Cumulative packet size per connected requestor and responder (Byte)
system.tol2bus.pktSize_system.cpu2.dcache.mem_side_port::system.l2.cpu_side_port     11787776                       # Cumulative packet size per connected requestor and responder (Byte)
system.tol2bus.pktSize_system.cpu3.icache.mem_side_port::system.l2.cpu_side_port        21632                       # Cumulative packet size per connected requestor and responder (Byte)
system.tol2bus.pktSize_system.cpu3.dcache.mem_side_port::system.l2.cpu_side_port     10856640                       # Cumulative packet size per connected requestor and responder (Byte)
system.tol2bus.pktSize_system.cpu4.icache.mem_side_port::system.l2.cpu_side_port        34944                       # Cumulative packet size per connected requestor and responder (Byte)
system.tol2bus.pktSize_system.cpu4.dcache.mem_side_port::system.l2.cpu_side_port     17152896                       # Cumulative packet size per connected requestor and responder (Byte)
system.tol2bus.pktSize_system.cpu5.icache.mem_side_port::system.l2.cpu_side_port        35840                       # Cumulative packet size per connected requestor and responder (Byte)
system.tol2bus.pktSize_system.cpu5.dcache.mem_side_port::system.l2.cpu_side_port     28158912                       # Cumulative packet size per connected requestor and responder (Byte)
system.tol2bus.pktSize_system.cpu6.icache.mem_side_port::system.l2.cpu_side_port        37632                       # Cumulative packet size per connected requestor and responder (Byte)
system.tol2bus.pktSize_system.cpu6.dcache.mem_side_port::system.l2.cpu_side_port     28839040                       # Cumulative packet size per connected requestor and responder (Byte)
system.tol2bus.pktSize_system.cpu7.icache.mem_side_port::system.l2.cpu_side_port        30144                       # Cumulative packet size per connected requestor and responder (Byte)
system.tol2bus.pktSize_system.cpu7.dcache.mem_side_port::system.l2.cpu_side_port     11842752                       # Cumulative packet size per connected requestor and responder (Byte)
system.tol2bus.pktSize::total               185707520                       # Cumulative packet size per connected requestor and responder (Byte)
system.tol2bus.snoops                         1621448                       # Total snoops (Count)
system.tol2bus.snoopTraffic                  60921664                       # Total snoop traffic (Byte)
system.tol2bus.snoopFanout::samples           3333223                       # Request fanout histogram (Count)
system.tol2bus.snoopFanout::mean             0.116780                       # Request fanout histogram (Count)
system.tol2bus.snoopFanout::stdev            0.370767                       # Request fanout histogram (Count)
system.tol2bus.snoopFanout::underflows              0      0.00%      0.00% # Request fanout histogram (Count)
system.tol2bus.snoopFanout::0                 2975894     89.28%     89.28% # Request fanout histogram (Count)
system.tol2bus.snoopFanout::1                  339894     10.20%     99.48% # Request fanout histogram (Count)
system.tol2bus.snoopFanout::2                    8604      0.26%     99.74% # Request fanout histogram (Count)
system.tol2bus.snoopFanout::3                    6324      0.19%     99.92% # Request fanout histogram (Count)
system.tol2bus.snoopFanout::4                     785      0.02%     99.95% # Request fanout histogram (Count)
system.tol2bus.snoopFanout::5                     787      0.02%     99.97% # Request fanout histogram (Count)
system.tol2bus.snoopFanout::6                     496      0.01%     99.99% # Request fanout histogram (Count)
system.tol2bus.snoopFanout::7                     383      0.01%    100.00% # Request fanout histogram (Count)
system.tol2bus.snoopFanout::8                      56      0.00%    100.00% # Request fanout histogram (Count)
system.tol2bus.snoopFanout::9                       0      0.00%    100.00% # Request fanout histogram (Count)
system.tol2bus.snoopFanout::10                      0      0.00%    100.00% # Request fanout histogram (Count)
system.tol2bus.snoopFanout::11                      0      0.00%    100.00% # Request fanout histogram (Count)
system.tol2bus.snoopFanout::12                      0      0.00%    100.00% # Request fanout histogram (Count)
system.tol2bus.snoopFanout::13                      0      0.00%    100.00% # Request fanout histogram (Count)
system.tol2bus.snoopFanout::14                      0      0.00%    100.00% # Request fanout histogram (Count)
system.tol2bus.snoopFanout::15                      0      0.00%    100.00% # Request fanout histogram (Count)
system.tol2bus.snoopFanout::16                      0      0.00%    100.00% # Request fanout histogram (Count)
system.tol2bus.snoopFanout::17                      0      0.00%    100.00% # Request fanout histogram (Count)
system.tol2bus.snoopFanout::18                      0      0.00%    100.00% # Request fanout histogram (Count)
system.tol2bus.snoopFanout::19                      0      0.00%    100.00% # Request fanout histogram (Count)
system.tol2bus.snoopFanout::20                      0      0.00%    100.00% # Request fanout histogram (Count)
system.tol2bus.snoopFanout::21                      0      0.00%    100.00% # Request fanout histogram (Count)
system.tol2bus.snoopFanout::22                      0      0.00%    100.00% # Request fanout histogram (Count)
system.tol2bus.snoopFanout::23                      0      0.00%    100.00% # Request fanout histogram (Count)
system.tol2bus.snoopFanout::24                      0      0.00%    100.00% # Request fanout histogram (Count)
system.tol2bus.snoopFanout::25                      0      0.00%    100.00% # Request fanout histogram (Count)
system.tol2bus.snoopFanout::26                      0      0.00%    100.00% # Request fanout histogram (Count)
system.tol2bus.snoopFanout::27                      0      0.00%    100.00% # Request fanout histogram (Count)
system.tol2bus.snoopFanout::28                      0      0.00%    100.00% # Request fanout histogram (Count)
system.tol2bus.snoopFanout::29                      0      0.00%    100.00% # Request fanout histogram (Count)
system.tol2bus.snoopFanout::30                      0      0.00%    100.00% # Request fanout histogram (Count)
system.tol2bus.snoopFanout::31                      0      0.00%    100.00% # Request fanout histogram (Count)
system.tol2bus.snoopFanout::32                      0      0.00%    100.00% # Request fanout histogram (Count)
system.tol2bus.snoopFanout::overflows               0      0.00%    100.00% # Request fanout histogram (Count)
system.tol2bus.snoopFanout::min_value               0                       # Request fanout histogram (Count)
system.tol2bus.snoopFanout::max_value               8                       # Request fanout histogram (Count)
system.tol2bus.snoopFanout::total             3333223                       # Request fanout histogram (Count)
system.tol2bus.power_state.pwrStateResidencyTicks::UNDEFINED 313003067000                       # Cumulative time (in ticks) in various power states (Tick)
system.tol2bus.reqLayer0.occupancy         2909173488                       # Layer occupancy (ticks) (Tick)
system.tol2bus.reqLayer0.utilization              0.0                       # Layer utilization (Ratio)
system.tol2bus.respLayer0.occupancy           3917991                       # Layer occupancy (ticks) (Tick)
system.tol2bus.respLayer0.utilization             0.0                       # Layer utilization (Ratio)
system.tol2bus.respLayer1.occupancy         656340480                       # Layer occupancy (ticks) (Tick)
system.tol2bus.respLayer1.utilization             0.0                       # Layer utilization (Ratio)
system.tol2bus.respLayer12.occupancy           408934                       # Layer occupancy (ticks) (Tick)
system.tol2bus.respLayer12.utilization            0.0                       # Layer utilization (Ratio)
system.tol2bus.respLayer13.occupancy        149624159                       # Layer occupancy (ticks) (Tick)
system.tol2bus.respLayer13.utilization            0.0                       # Layer utilization (Ratio)
system.tol2bus.respLayer16.occupancy           591954                       # Layer occupancy (ticks) (Tick)
system.tol2bus.respLayer16.utilization            0.0                       # Layer utilization (Ratio)
system.tol2bus.respLayer17.occupancy        241203454                       # Layer occupancy (ticks) (Tick)
system.tol2bus.respLayer17.utilization            0.0                       # Layer utilization (Ratio)
system.tol2bus.respLayer20.occupancy           600431                       # Layer occupancy (ticks) (Tick)
system.tol2bus.respLayer20.utilization            0.0                       # Layer utilization (Ratio)
system.tol2bus.respLayer21.occupancy        389012642                       # Layer occupancy (ticks) (Tick)
system.tol2bus.respLayer21.utilization            0.0                       # Layer utilization (Ratio)
system.tol2bus.respLayer24.occupancy           626435                       # Layer occupancy (ticks) (Tick)
system.tol2bus.respLayer24.utilization            0.0                       # Layer utilization (Ratio)
system.tol2bus.respLayer25.occupancy        389695722                       # Layer occupancy (ticks) (Tick)
system.tol2bus.respLayer25.utilization            0.0                       # Layer utilization (Ratio)
system.tol2bus.respLayer28.occupancy           523939                       # Layer occupancy (ticks) (Tick)
system.tol2bus.respLayer28.utilization            0.0                       # Layer utilization (Ratio)
system.tol2bus.respLayer29.occupancy        185966981                       # Layer occupancy (ticks) (Tick)
system.tol2bus.respLayer29.utilization            0.0                       # Layer utilization (Ratio)
system.tol2bus.respLayer4.occupancy            635440                       # Layer occupancy (ticks) (Tick)
system.tol2bus.respLayer4.utilization             0.0                       # Layer utilization (Ratio)
system.tol2bus.respLayer5.occupancy         389164592                       # Layer occupancy (ticks) (Tick)
system.tol2bus.respLayer5.utilization             0.0                       # Layer utilization (Ratio)
system.tol2bus.respLayer8.occupancy            512897                       # Layer occupancy (ticks) (Tick)
system.tol2bus.respLayer8.utilization             0.0                       # Layer utilization (Ratio)
system.tol2bus.respLayer9.occupancy         186003921                       # Layer occupancy (ticks) (Tick)
system.tol2bus.respLayer9.utilization             0.0                       # Layer utilization (Ratio)
system.tol2bus.snoop_filter.totRequests       3438437                       # Total number of requests made to the snoop filter. (Count)
system.tol2bus.snoop_filter.hitSingleRequests      1713109                       # Number of requests hitting in the snoop filter with a single holder of the requested data. (Count)
system.tol2bus.snoop_filter.hitMultiRequests        35371                       # Number of requests hitting in the snoop filter with multiple (>1) holders of the requested data. (Count)
system.tol2bus.snoop_filter.totSnoops          316809                       # Total number of snoops made to the snoop filter. (Count)
system.tol2bus.snoop_filter.hitSingleSnoops       308935                       # Number of snoops hitting in the snoop filter with a single holder of the requested data. (Count)
system.tol2bus.snoop_filter.hitMultiSnoops         7874                       # Number of snoops hitting in the snoop filter with multiple (>1) holders of the requested data. (Count)
system.voltage_domain.voltage                       1                       # Voltage in Volts (Volt)
system.workload.inst.arm                            0                       # number of arm instructions executed (Count)
system.workload.inst.quiesce                        0                       # number of quiesce instructions executed (Count)

---------- End Simulation Statistics   ----------
