
---------- Begin Simulation Statistics ----------
simSeconds                                   0.491797                       # Number of seconds simulated (Second)
simTicks                                 491796552000                       # Number of ticks simulated (Tick)
finalTick                                491796552000                       # Number of ticks from beginning of simulation (restored from checkpoints and never reset) (Tick)
simFreq                                  1000000000000                       # The number of ticks per simulated second ((Tick/Second))
hostSeconds                                  58198.18                       # Real time elapsed on the host (Second)
hostTickRate                                  8450376                       # The number of ticks simulated per host second (ticks/s) ((Tick/Second))
hostMemory                                     724208                       # Number of bytes of host memory used (Byte)
simInsts                                   2540918284                       # Number of instructions simulated (Count)
simOps                                     3985162944                       # Number of ops (including micro ops) simulated (Count)
hostInstRate                                    43660                       # Simulator instruction rate (inst/s) ((Count/Second))
hostOpRate                                      68476                       # Simulator op (including micro ops) rate (op/s) ((Count/Second))
system.clk_domain.clock                          1000                       # Clock period in ticks (Tick)
system.cpu0.numCycles                       983593105                       # Number of cpu cycles simulated (Cycle)
system.cpu0.cpi                              0.718808                       # CPI: cycles per instruction (core level) ((Cycle/Count))
system.cpu0.ipc                              1.391193                       # IPC: instructions per cycle (core level) ((Count/Cycle))
system.cpu0.numWorkItemsStarted                     0                       # Number of work items this cpu started (Count)
system.cpu0.numWorkItemsCompleted                   0                       # Number of work items this cpu completed (Count)
system.cpu0.instsAdded                     2539209132                       # Number of instructions added to the IQ (excludes non-spec) (Count)
system.cpu0.nonSpecInstsAdded                 9194572                       # Number of non-speculative instructions added to the IQ (Count)
system.cpu0.instsIssued                    2491918855                       # Number of instructions issued (Count)
system.cpu0.squashedInstsIssued                781493                       # Number of squashed instructions issued (Count)
system.cpu0.squashedInstsExamined           387001054                       # Number of squashed instructions iterated over during squash; mainly for profiling (Count)
system.cpu0.squashedOperandsExamined        275934688                       # Number of squashed operands that are examined and possibly removed from graph (Count)
system.cpu0.squashedNonSpecRemoved            3194166                       # Number of squashed non-spec instructions that were removed (Count)
system.cpu0.numIssuedDist::samples          983405429                       # Number of insts issued each cycle (Count)
system.cpu0.numIssuedDist::mean              2.533969                       # Number of insts issued each cycle (Count)
system.cpu0.numIssuedDist::stdev             2.113841                       # Number of insts issued each cycle (Count)
system.cpu0.numIssuedDist::underflows               0      0.00%      0.00% # Number of insts issued each cycle (Count)
system.cpu0.numIssuedDist::0                275037359     27.97%     27.97% # Number of insts issued each cycle (Count)
system.cpu0.numIssuedDist::1                 91868848      9.34%     37.31% # Number of insts issued each cycle (Count)
system.cpu0.numIssuedDist::2                101404786     10.31%     47.62% # Number of insts issued each cycle (Count)
system.cpu0.numIssuedDist::3                185196015     18.83%     66.45% # Number of insts issued each cycle (Count)
system.cpu0.numIssuedDist::4                140648900     14.30%     80.76% # Number of insts issued each cycle (Count)
system.cpu0.numIssuedDist::5                 98870526     10.05%     90.81% # Number of insts issued each cycle (Count)
system.cpu0.numIssuedDist::6                 56441729      5.74%     96.55% # Number of insts issued each cycle (Count)
system.cpu0.numIssuedDist::7                 25444342      2.59%     99.14% # Number of insts issued each cycle (Count)
system.cpu0.numIssuedDist::8                  8492924      0.86%    100.00% # Number of insts issued each cycle (Count)
system.cpu0.numIssuedDist::overflows                0      0.00%    100.00% # Number of insts issued each cycle (Count)
system.cpu0.numIssuedDist::min_value                0                       # Number of insts issued each cycle (Count)
system.cpu0.numIssuedDist::max_value                8                       # Number of insts issued each cycle (Count)
system.cpu0.numIssuedDist::total            983405429                       # Number of insts issued each cycle (Count)
system.cpu0.statFuBusy::No_OpClass                  0      0.00%      0.00% # attempts to use FU when none available (Count)
system.cpu0.statFuBusy::IntAlu                3500098     12.75%     12.75% # attempts to use FU when none available (Count)
system.cpu0.statFuBusy::IntMult                     0      0.00%     12.75% # attempts to use FU when none available (Count)
system.cpu0.statFuBusy::IntDiv                      0      0.00%     12.75% # attempts to use FU when none available (Count)
system.cpu0.statFuBusy::FloatAdd                    0      0.00%     12.75% # attempts to use FU when none available (Count)
system.cpu0.statFuBusy::FloatCmp                    0      0.00%     12.75% # attempts to use FU when none available (Count)
system.cpu0.statFuBusy::FloatCvt                    0      0.00%     12.75% # attempts to use FU when none available (Count)
system.cpu0.statFuBusy::FloatMult                   0      0.00%     12.75% # attempts to use FU when none available (Count)
system.cpu0.statFuBusy::FloatMultAcc                0      0.00%     12.75% # attempts to use FU when none available (Count)
system.cpu0.statFuBusy::FloatDiv                    0      0.00%     12.75% # attempts to use FU when none available (Count)
system.cpu0.statFuBusy::FloatMisc                   0      0.00%     12.75% # attempts to use FU when none available (Count)
system.cpu0.statFuBusy::FloatSqrt                   0      0.00%     12.75% # attempts to use FU when none available (Count)
system.cpu0.statFuBusy::SimdAdd                     0      0.00%     12.75% # attempts to use FU when none available (Count)
system.cpu0.statFuBusy::SimdAddAcc                  0      0.00%     12.75% # attempts to use FU when none available (Count)
system.cpu0.statFuBusy::SimdAlu                   115      0.00%     12.75% # attempts to use FU when none available (Count)
system.cpu0.statFuBusy::SimdCmp                     0      0.00%     12.75% # attempts to use FU when none available (Count)
system.cpu0.statFuBusy::SimdCvt                     5      0.00%     12.75% # attempts to use FU when none available (Count)
system.cpu0.statFuBusy::SimdMisc                   10      0.00%     12.75% # attempts to use FU when none available (Count)
system.cpu0.statFuBusy::SimdMult                    0      0.00%     12.75% # attempts to use FU when none available (Count)
system.cpu0.statFuBusy::SimdMultAcc                 0      0.00%     12.75% # attempts to use FU when none available (Count)
system.cpu0.statFuBusy::SimdMatMultAcc              0      0.00%     12.75% # attempts to use FU when none available (Count)
system.cpu0.statFuBusy::SimdShift                   0      0.00%     12.75% # attempts to use FU when none available (Count)
system.cpu0.statFuBusy::SimdShiftAcc                0      0.00%     12.75% # attempts to use FU when none available (Count)
system.cpu0.statFuBusy::SimdDiv                     0      0.00%     12.75% # attempts to use FU when none available (Count)
system.cpu0.statFuBusy::SimdSqrt                    0      0.00%     12.75% # attempts to use FU when none available (Count)
system.cpu0.statFuBusy::SimdFloatAdd                1      0.00%     12.75% # attempts to use FU when none available (Count)
system.cpu0.statFuBusy::SimdFloatAlu                0      0.00%     12.75% # attempts to use FU when none available (Count)
system.cpu0.statFuBusy::SimdFloatCmp                0      0.00%     12.75% # attempts to use FU when none available (Count)
system.cpu0.statFuBusy::SimdFloatCvt                0      0.00%     12.75% # attempts to use FU when none available (Count)
system.cpu0.statFuBusy::SimdFloatDiv                0      0.00%     12.75% # attempts to use FU when none available (Count)
system.cpu0.statFuBusy::SimdFloatMisc               0      0.00%     12.75% # attempts to use FU when none available (Count)
system.cpu0.statFuBusy::SimdFloatMult               0      0.00%     12.75% # attempts to use FU when none available (Count)
system.cpu0.statFuBusy::SimdFloatMultAcc            0      0.00%     12.75% # attempts to use FU when none available (Count)
system.cpu0.statFuBusy::SimdFloatMatMultAcc            0      0.00%     12.75% # attempts to use FU when none available (Count)
system.cpu0.statFuBusy::SimdFloatSqrt               0      0.00%     12.75% # attempts to use FU when none available (Count)
system.cpu0.statFuBusy::SimdReduceAdd               0      0.00%     12.75% # attempts to use FU when none available (Count)
system.cpu0.statFuBusy::SimdReduceAlu               0      0.00%     12.75% # attempts to use FU when none available (Count)
system.cpu0.statFuBusy::SimdReduceCmp               0      0.00%     12.75% # attempts to use FU when none available (Count)
system.cpu0.statFuBusy::SimdFloatReduceAdd            0      0.00%     12.75% # attempts to use FU when none available (Count)
system.cpu0.statFuBusy::SimdFloatReduceCmp            0      0.00%     12.75% # attempts to use FU when none available (Count)
system.cpu0.statFuBusy::SimdAes                     0      0.00%     12.75% # attempts to use FU when none available (Count)
system.cpu0.statFuBusy::SimdAesMix                  0      0.00%     12.75% # attempts to use FU when none available (Count)
system.cpu0.statFuBusy::SimdSha1Hash                0      0.00%     12.75% # attempts to use FU when none available (Count)
system.cpu0.statFuBusy::SimdSha1Hash2               0      0.00%     12.75% # attempts to use FU when none available (Count)
system.cpu0.statFuBusy::SimdSha256Hash              0      0.00%     12.75% # attempts to use FU when none available (Count)
system.cpu0.statFuBusy::SimdSha256Hash2             0      0.00%     12.75% # attempts to use FU when none available (Count)
system.cpu0.statFuBusy::SimdShaSigma2               0      0.00%     12.75% # attempts to use FU when none available (Count)
system.cpu0.statFuBusy::SimdShaSigma3               0      0.00%     12.75% # attempts to use FU when none available (Count)
system.cpu0.statFuBusy::SimdPredAlu                 0      0.00%     12.75% # attempts to use FU when none available (Count)
system.cpu0.statFuBusy::Matrix                      0      0.00%     12.75% # attempts to use FU when none available (Count)
system.cpu0.statFuBusy::MatrixMov                   0      0.00%     12.75% # attempts to use FU when none available (Count)
system.cpu0.statFuBusy::MatrixOP                    0      0.00%     12.75% # attempts to use FU when none available (Count)
system.cpu0.statFuBusy::MemRead               6875296     25.04%     37.79% # attempts to use FU when none available (Count)
system.cpu0.statFuBusy::MemWrite             10125625     36.88%     74.66% # attempts to use FU when none available (Count)
system.cpu0.statFuBusy::FloatMemRead          3417925     12.45%     87.11% # attempts to use FU when none available (Count)
system.cpu0.statFuBusy::FloatMemWrite         3539863     12.89%    100.00% # attempts to use FU when none available (Count)
system.cpu0.statFuBusy::IprAccess                   0      0.00%    100.00% # attempts to use FU when none available (Count)
system.cpu0.statFuBusy::InstPrefetch                0      0.00%    100.00% # attempts to use FU when none available (Count)
system.cpu0.statFuBusy::SimdUnitStrideLoad            0      0.00%    100.00% # attempts to use FU when none available (Count)
system.cpu0.statFuBusy::SimdUnitStrideStore            0      0.00%    100.00% # attempts to use FU when none available (Count)
system.cpu0.statFuBusy::SimdUnitStrideMaskLoad            0      0.00%    100.00% # attempts to use FU when none available (Count)
system.cpu0.statFuBusy::SimdUnitStrideMaskStore            0      0.00%    100.00% # attempts to use FU when none available (Count)
system.cpu0.statFuBusy::SimdStridedLoad             0      0.00%    100.00% # attempts to use FU when none available (Count)
system.cpu0.statFuBusy::SimdStridedStore            0      0.00%    100.00% # attempts to use FU when none available (Count)
system.cpu0.statFuBusy::SimdIndexedLoad             0      0.00%    100.00% # attempts to use FU when none available (Count)
system.cpu0.statFuBusy::SimdIndexedStore            0      0.00%    100.00% # attempts to use FU when none available (Count)
system.cpu0.statFuBusy::SimdWholeRegisterLoad            0      0.00%    100.00% # attempts to use FU when none available (Count)
system.cpu0.statFuBusy::SimdWholeRegisterStore            0      0.00%    100.00% # attempts to use FU when none available (Count)
system.cpu0.statFuBusy::SimdUnitStrideFaultOnlyFirstLoad            0      0.00%    100.00% # attempts to use FU when none available (Count)
system.cpu0.statFuBusy::SimdUnitStrideSegmentedLoad            0      0.00%    100.00% # attempts to use FU when none available (Count)
system.cpu0.statFuBusy::SimdUnitStrideSegmentedStore            0      0.00%    100.00% # attempts to use FU when none available (Count)
system.cpu0.statFuBusy::SimdUnitStrideSegmentedFaultOnlyFirstLoad            0      0.00%    100.00% # attempts to use FU when none available (Count)
system.cpu0.statFuBusy::SimdStrideSegmentedLoad            0      0.00%    100.00% # attempts to use FU when none available (Count)
system.cpu0.statFuBusy::SimdStrideSegmentedStore            0      0.00%    100.00% # attempts to use FU when none available (Count)
system.cpu0.statFuBusy::SimdExt                     0      0.00%    100.00% # attempts to use FU when none available (Count)
system.cpu0.statFuBusy::SimdFloatExt                0      0.00%    100.00% # attempts to use FU when none available (Count)
system.cpu0.statFuBusy::SimdConfig                  0      0.00%    100.00% # attempts to use FU when none available (Count)
system.cpu0.statIssuedInstType_0::No_OpClass     80329845      3.22%      3.22% # Number of instructions issued per FU type, per thread (Count)
system.cpu0.statIssuedInstType_0::IntAlu   1461283750     58.64%     61.86% # Number of instructions issued per FU type, per thread (Count)
system.cpu0.statIssuedInstType_0::IntMult      2000157      0.08%     61.94% # Number of instructions issued per FU type, per thread (Count)
system.cpu0.statIssuedInstType_0::IntDiv           46      0.00%     61.94% # Number of instructions issued per FU type, per thread (Count)
system.cpu0.statIssuedInstType_0::FloatAdd      2130775      0.09%     62.03% # Number of instructions issued per FU type, per thread (Count)
system.cpu0.statIssuedInstType_0::FloatCmp            0      0.00%     62.03% # Number of instructions issued per FU type, per thread (Count)
system.cpu0.statIssuedInstType_0::FloatCvt            0      0.00%     62.03% # Number of instructions issued per FU type, per thread (Count)
system.cpu0.statIssuedInstType_0::FloatMult            0      0.00%     62.03% # Number of instructions issued per FU type, per thread (Count)
system.cpu0.statIssuedInstType_0::FloatMultAcc            0      0.00%     62.03% # Number of instructions issued per FU type, per thread (Count)
system.cpu0.statIssuedInstType_0::FloatDiv            0      0.00%     62.03% # Number of instructions issued per FU type, per thread (Count)
system.cpu0.statIssuedInstType_0::FloatMisc            0      0.00%     62.03% # Number of instructions issued per FU type, per thread (Count)
system.cpu0.statIssuedInstType_0::FloatSqrt            0      0.00%     62.03% # Number of instructions issued per FU type, per thread (Count)
system.cpu0.statIssuedInstType_0::SimdAdd           38      0.00%     62.03% # Number of instructions issued per FU type, per thread (Count)
system.cpu0.statIssuedInstType_0::SimdAddAcc            0      0.00%     62.03% # Number of instructions issued per FU type, per thread (Count)
system.cpu0.statIssuedInstType_0::SimdAlu         1128      0.00%     62.03% # Number of instructions issued per FU type, per thread (Count)
system.cpu0.statIssuedInstType_0::SimdCmp            6      0.00%     62.03% # Number of instructions issued per FU type, per thread (Count)
system.cpu0.statIssuedInstType_0::SimdCvt          490      0.00%     62.03% # Number of instructions issued per FU type, per thread (Count)
system.cpu0.statIssuedInstType_0::SimdMisc      2131307      0.09%     62.12% # Number of instructions issued per FU type, per thread (Count)
system.cpu0.statIssuedInstType_0::SimdMult            0      0.00%     62.12% # Number of instructions issued per FU type, per thread (Count)
system.cpu0.statIssuedInstType_0::SimdMultAcc            0      0.00%     62.12% # Number of instructions issued per FU type, per thread (Count)
system.cpu0.statIssuedInstType_0::SimdMatMultAcc            0      0.00%     62.12% # Number of instructions issued per FU type, per thread (Count)
system.cpu0.statIssuedInstType_0::SimdShift            0      0.00%     62.12% # Number of instructions issued per FU type, per thread (Count)
system.cpu0.statIssuedInstType_0::SimdShiftAcc            0      0.00%     62.12% # Number of instructions issued per FU type, per thread (Count)
system.cpu0.statIssuedInstType_0::SimdDiv            0      0.00%     62.12% # Number of instructions issued per FU type, per thread (Count)
system.cpu0.statIssuedInstType_0::SimdSqrt            0      0.00%     62.12% # Number of instructions issued per FU type, per thread (Count)
system.cpu0.statIssuedInstType_0::SimdFloatAdd           19      0.00%     62.12% # Number of instructions issued per FU type, per thread (Count)
system.cpu0.statIssuedInstType_0::SimdFloatAlu            0      0.00%     62.12% # Number of instructions issued per FU type, per thread (Count)
system.cpu0.statIssuedInstType_0::SimdFloatCmp            0      0.00%     62.12% # Number of instructions issued per FU type, per thread (Count)
system.cpu0.statIssuedInstType_0::SimdFloatCvt            9      0.00%     62.12% # Number of instructions issued per FU type, per thread (Count)
system.cpu0.statIssuedInstType_0::SimdFloatDiv            2      0.00%     62.12% # Number of instructions issued per FU type, per thread (Count)
system.cpu0.statIssuedInstType_0::SimdFloatMisc            0      0.00%     62.12% # Number of instructions issued per FU type, per thread (Count)
system.cpu0.statIssuedInstType_0::SimdFloatMult           12      0.00%     62.12% # Number of instructions issued per FU type, per thread (Count)
system.cpu0.statIssuedInstType_0::SimdFloatMultAcc            0      0.00%     62.12% # Number of instructions issued per FU type, per thread (Count)
system.cpu0.statIssuedInstType_0::SimdFloatMatMultAcc            0      0.00%     62.12% # Number of instructions issued per FU type, per thread (Count)
system.cpu0.statIssuedInstType_0::SimdFloatSqrt            0      0.00%     62.12% # Number of instructions issued per FU type, per thread (Count)
system.cpu0.statIssuedInstType_0::SimdReduceAdd            0      0.00%     62.12% # Number of instructions issued per FU type, per thread (Count)
system.cpu0.statIssuedInstType_0::SimdReduceAlu            0      0.00%     62.12% # Number of instructions issued per FU type, per thread (Count)
system.cpu0.statIssuedInstType_0::SimdReduceCmp            0      0.00%     62.12% # Number of instructions issued per FU type, per thread (Count)
system.cpu0.statIssuedInstType_0::SimdFloatReduceAdd            0      0.00%     62.12% # Number of instructions issued per FU type, per thread (Count)
system.cpu0.statIssuedInstType_0::SimdFloatReduceCmp            0      0.00%     62.12% # Number of instructions issued per FU type, per thread (Count)
system.cpu0.statIssuedInstType_0::SimdAes            0      0.00%     62.12% # Number of instructions issued per FU type, per thread (Count)
system.cpu0.statIssuedInstType_0::SimdAesMix            0      0.00%     62.12% # Number of instructions issued per FU type, per thread (Count)
system.cpu0.statIssuedInstType_0::SimdSha1Hash            0      0.00%     62.12% # Number of instructions issued per FU type, per thread (Count)
system.cpu0.statIssuedInstType_0::SimdSha1Hash2            0      0.00%     62.12% # Number of instructions issued per FU type, per thread (Count)
system.cpu0.statIssuedInstType_0::SimdSha256Hash            0      0.00%     62.12% # Number of instructions issued per FU type, per thread (Count)
system.cpu0.statIssuedInstType_0::SimdSha256Hash2            0      0.00%     62.12% # Number of instructions issued per FU type, per thread (Count)
system.cpu0.statIssuedInstType_0::SimdShaSigma2            0      0.00%     62.12% # Number of instructions issued per FU type, per thread (Count)
system.cpu0.statIssuedInstType_0::SimdShaSigma3            0      0.00%     62.12% # Number of instructions issued per FU type, per thread (Count)
system.cpu0.statIssuedInstType_0::SimdPredAlu            0      0.00%     62.12% # Number of instructions issued per FU type, per thread (Count)
system.cpu0.statIssuedInstType_0::Matrix            0      0.00%     62.12% # Number of instructions issued per FU type, per thread (Count)
system.cpu0.statIssuedInstType_0::MatrixMov            0      0.00%     62.12% # Number of instructions issued per FU type, per thread (Count)
system.cpu0.statIssuedInstType_0::MatrixOP            0      0.00%     62.12% # Number of instructions issued per FU type, per thread (Count)
system.cpu0.statIssuedInstType_0::MemRead    562311347     22.57%     84.68% # Number of instructions issued per FU type, per thread (Count)
system.cpu0.statIssuedInstType_0::MemWrite    349744095     14.04%     98.72% # Number of instructions issued per FU type, per thread (Count)
system.cpu0.statIssuedInstType_0::FloatMemRead     15648075      0.63%     99.34% # Number of instructions issued per FU type, per thread (Count)
system.cpu0.statIssuedInstType_0::FloatMemWrite     16337754      0.66%    100.00% # Number of instructions issued per FU type, per thread (Count)
system.cpu0.statIssuedInstType_0::IprAccess            0      0.00%    100.00% # Number of instructions issued per FU type, per thread (Count)
system.cpu0.statIssuedInstType_0::InstPrefetch            0      0.00%    100.00% # Number of instructions issued per FU type, per thread (Count)
system.cpu0.statIssuedInstType_0::SimdUnitStrideLoad            0      0.00%    100.00% # Number of instructions issued per FU type, per thread (Count)
system.cpu0.statIssuedInstType_0::SimdUnitStrideStore            0      0.00%    100.00% # Number of instructions issued per FU type, per thread (Count)
system.cpu0.statIssuedInstType_0::SimdUnitStrideMaskLoad            0      0.00%    100.00% # Number of instructions issued per FU type, per thread (Count)
system.cpu0.statIssuedInstType_0::SimdUnitStrideMaskStore            0      0.00%    100.00% # Number of instructions issued per FU type, per thread (Count)
system.cpu0.statIssuedInstType_0::SimdStridedLoad            0      0.00%    100.00% # Number of instructions issued per FU type, per thread (Count)
system.cpu0.statIssuedInstType_0::SimdStridedStore            0      0.00%    100.00% # Number of instructions issued per FU type, per thread (Count)
system.cpu0.statIssuedInstType_0::SimdIndexedLoad            0      0.00%    100.00% # Number of instructions issued per FU type, per thread (Count)
system.cpu0.statIssuedInstType_0::SimdIndexedStore            0      0.00%    100.00% # Number of instructions issued per FU type, per thread (Count)
system.cpu0.statIssuedInstType_0::SimdWholeRegisterLoad            0      0.00%    100.00% # Number of instructions issued per FU type, per thread (Count)
system.cpu0.statIssuedInstType_0::SimdWholeRegisterStore            0      0.00%    100.00% # Number of instructions issued per FU type, per thread (Count)
system.cpu0.statIssuedInstType_0::SimdUnitStrideFaultOnlyFirstLoad            0      0.00%    100.00% # Number of instructions issued per FU type, per thread (Count)
system.cpu0.statIssuedInstType_0::SimdUnitStrideSegmentedLoad            0      0.00%    100.00% # Number of instructions issued per FU type, per thread (Count)
system.cpu0.statIssuedInstType_0::SimdUnitStrideSegmentedStore            0      0.00%    100.00% # Number of instructions issued per FU type, per thread (Count)
system.cpu0.statIssuedInstType_0::SimdUnitStrideSegmentedFaultOnlyFirstLoad            0      0.00%    100.00% # Number of instructions issued per FU type, per thread (Count)
system.cpu0.statIssuedInstType_0::SimdStrideSegmentedLoad            0      0.00%    100.00% # Number of instructions issued per FU type, per thread (Count)
system.cpu0.statIssuedInstType_0::SimdStrideSegmentedStore            0      0.00%    100.00% # Number of instructions issued per FU type, per thread (Count)
system.cpu0.statIssuedInstType_0::SimdExt            0      0.00%    100.00% # Number of instructions issued per FU type, per thread (Count)
system.cpu0.statIssuedInstType_0::SimdFloatExt            0      0.00%    100.00% # Number of instructions issued per FU type, per thread (Count)
system.cpu0.statIssuedInstType_0::SimdConfig            0      0.00%    100.00% # Number of instructions issued per FU type, per thread (Count)
system.cpu0.statIssuedInstType_0::total    2491918855                       # Number of instructions issued per FU type, per thread (Count)
system.cpu0.issueRate                        2.533485                       # Inst issue rate ((Count/Cycle))
system.cpu0.fuBusy                           27458938                       # FU busy when requested (Count)
system.cpu0.fuBusyRate                       0.011019                       # FU busy rate (busy events/executed inst) ((Count/Count))
system.cpu0.intInstQueueReads              5913149142                       # Number of integer instruction queue reads (Count)
system.cpu0.intInstQueueWrites             2879353578                       # Number of integer instruction queue writes (Count)
system.cpu0.intInstQueueWakeupAccesses     2430088095                       # Number of integer instruction queue wakeup accesses (Count)
system.cpu0.fpInstQueueReads                 82334428                       # Number of floating instruction queue reads (Count)
system.cpu0.fpInstQueueWrites                57986912                       # Number of floating instruction queue writes (Count)
system.cpu0.fpInstQueueWakeupAccesses        33005077                       # Number of floating instruction queue wakeup accesses (Count)
system.cpu0.vecInstQueueReads                       0                       # Number of vector instruction queue reads (Count)
system.cpu0.vecInstQueueWrites                      0                       # Number of vector instruction queue writes (Count)
system.cpu0.vecInstQueueWakeupAccesses              0                       # Number of vector instruction queue wakeup accesses (Count)
system.cpu0.intAluAccesses                 2394774898                       # Number of integer alu accesses (Count)
system.cpu0.fpAluAccesses                    44273050                       # Number of floating point alu accesses (Count)
system.cpu0.vecAluAccesses                          0                       # Number of vector alu accesses (Count)
system.cpu0.numRecvResp                     582724498                       # Number of received responses (Count)
system.cpu0.numRecvRespBytes               3985453295                       # Number of received response bytes (Byte)
system.cpu0.recvRespAvgBW                        4.05                       # Average bandwidth of received responses ((Byte/Cycle))
system.cpu0.recvRespAvgSize                      6.84                       # Average packet size per received response ((Byte/Count))
system.cpu0.recvRespAvgRate                      0.59                       # Average rate of received responses per cycle ((Count/Cycle))
system.cpu0.recvRespAvgRetryRate                 0.00                       # Average retry rate per received response ((Count/Count))
system.cpu0.numSendRetryResp                        0                       # Number of retry responses sent (Count)
system.cpu0.numSquashedInsts                 14648206                       # Number of squashed instructions skipped in execute (Count)
system.cpu0.numSwp                                  0                       # Number of swp insts executed (Count)
system.cpu0.timesIdled                           1583                       # Number of times that the entire CPU went into an idle state and unscheduled itself (Count)
system.cpu0.idleCycles                         187676                       # Total number of cycles that the CPU has spent unscheduled due to idling (Cycle)
system.cpu0.MemDepUnit__0.insertedLoads     593149884                       # Number of loads inserted to the mem dependence unit. (Count)
system.cpu0.MemDepUnit__0.insertedStores    378460867                       # Number of stores inserted to the mem dependence unit. (Count)
system.cpu0.MemDepUnit__0.conflictingLoads    173490387                       # Number of conflicting loads. (Count)
system.cpu0.MemDepUnit__0.conflictingStores     74339955                       # Number of conflicting stores. (Count)
system.cpu0.MemDepUnit__1.insertedLoads             0                       # Number of loads inserted to the mem dependence unit. (Count)
system.cpu0.MemDepUnit__1.insertedStores            0                       # Number of stores inserted to the mem dependence unit. (Count)
system.cpu0.MemDepUnit__1.conflictingLoads            0                       # Number of conflicting loads. (Count)
system.cpu0.MemDepUnit__1.conflictingStores            0                       # Number of conflicting stores. (Count)
system.cpu0.MemDepUnit__2.insertedLoads             0                       # Number of loads inserted to the mem dependence unit. (Count)
system.cpu0.MemDepUnit__2.insertedStores            0                       # Number of stores inserted to the mem dependence unit. (Count)
system.cpu0.MemDepUnit__2.conflictingLoads            0                       # Number of conflicting loads. (Count)
system.cpu0.MemDepUnit__2.conflictingStores            0                       # Number of conflicting stores. (Count)
system.cpu0.MemDepUnit__3.insertedLoads             0                       # Number of loads inserted to the mem dependence unit. (Count)
system.cpu0.MemDepUnit__3.insertedStores            0                       # Number of stores inserted to the mem dependence unit. (Count)
system.cpu0.MemDepUnit__3.conflictingLoads            0                       # Number of conflicting loads. (Count)
system.cpu0.MemDepUnit__3.conflictingStores            0                       # Number of conflicting stores. (Count)
system.cpu0.branchPred.lookups_0::NoBranch            0      0.00%      0.00% # Number of BP lookups (Count)
system.cpu0.branchPred.lookups_0::Return     77020099     33.49%     33.49% # Number of BP lookups (Count)
system.cpu0.branchPred.lookups_0::CallDirect     77360835     33.64%     67.13% # Number of BP lookups (Count)
system.cpu0.branchPred.lookups_0::CallIndirect          520      0.00%     67.13% # Number of BP lookups (Count)
system.cpu0.branchPred.lookups_0::DirectCond     63280938     27.51%     94.64% # Number of BP lookups (Count)
system.cpu0.branchPred.lookups_0::DirectUncond     11287572      4.91%     99.55% # Number of BP lookups (Count)
system.cpu0.branchPred.lookups_0::IndirectCond            0      0.00%     99.55% # Number of BP lookups (Count)
system.cpu0.branchPred.lookups_0::IndirectUncond      1038375      0.45%    100.00% # Number of BP lookups (Count)
system.cpu0.branchPred.lookups_0::total     229988339                       # Number of BP lookups (Count)
system.cpu0.branchPred.squashes_0::NoBranch            0      0.00%      0.00% # Number of branches that got squashed (completely removed) as an earlier branch was mispredicted. (Count)
system.cpu0.branchPred.squashes_0::Return     14392003     31.98%     31.98% # Number of branches that got squashed (completely removed) as an earlier branch was mispredicted. (Count)
system.cpu0.branchPred.squashes_0::CallDirect     14733027     32.74%     64.72% # Number of branches that got squashed (completely removed) as an earlier branch was mispredicted. (Count)
system.cpu0.branchPred.squashes_0::CallIndirect          227      0.00%     64.72% # Number of branches that got squashed (completely removed) as an earlier branch was mispredicted. (Count)
system.cpu0.branchPred.squashes_0::DirectCond     11723200     26.05%     90.77% # Number of branches that got squashed (completely removed) as an earlier branch was mispredicted. (Count)
system.cpu0.branchPred.squashes_0::DirectUncond      4114467      9.14%     99.92% # Number of branches that got squashed (completely removed) as an earlier branch was mispredicted. (Count)
system.cpu0.branchPred.squashes_0::IndirectCond            0      0.00%     99.92% # Number of branches that got squashed (completely removed) as an earlier branch was mispredicted. (Count)
system.cpu0.branchPred.squashes_0::IndirectUncond        38116      0.08%    100.00% # Number of branches that got squashed (completely removed) as an earlier branch was mispredicted. (Count)
system.cpu0.branchPred.squashes_0::total     45001040                       # Number of branches that got squashed (completely removed) as an earlier branch was mispredicted. (Count)
system.cpu0.branchPred.corrected_0::NoBranch            0      0.00%      0.00% # Number of branches that got corrected but not yet commited. Branches get corrected by decode or after execute. Also a branch misprediction can be detected out-of-order. Therefore, a corrected branch might not end up beeing committed in case an even earlier branch was mispredicted (Count)
system.cpu0.branchPred.corrected_0::Return         1040      0.02%      0.02% # Number of branches that got corrected but not yet commited. Branches get corrected by decode or after execute. Also a branch misprediction can be detected out-of-order. Therefore, a corrected branch might not end up beeing committed in case an even earlier branch was mispredicted (Count)
system.cpu0.branchPred.corrected_0::CallDirect          733      0.01%      0.03% # Number of branches that got corrected but not yet commited. Branches get corrected by decode or after execute. Also a branch misprediction can be detected out-of-order. Therefore, a corrected branch might not end up beeing committed in case an even earlier branch was mispredicted (Count)
system.cpu0.branchPred.corrected_0::CallIndirect          133      0.00%      0.03% # Number of branches that got corrected but not yet commited. Branches get corrected by decode or after execute. Also a branch misprediction can be detected out-of-order. Therefore, a corrected branch might not end up beeing committed in case an even earlier branch was mispredicted (Count)
system.cpu0.branchPred.corrected_0::DirectCond      5823330     94.08%     94.11% # Number of branches that got corrected but not yet commited. Branches get corrected by decode or after execute. Also a branch misprediction can be detected out-of-order. Therefore, a corrected branch might not end up beeing committed in case an even earlier branch was mispredicted (Count)
system.cpu0.branchPred.corrected_0::DirectUncond          327      0.01%     94.12% # Number of branches that got corrected but not yet commited. Branches get corrected by decode or after execute. Also a branch misprediction can be detected out-of-order. Therefore, a corrected branch might not end up beeing committed in case an even earlier branch was mispredicted (Count)
system.cpu0.branchPred.corrected_0::IndirectCond            0      0.00%     94.12% # Number of branches that got corrected but not yet commited. Branches get corrected by decode or after execute. Also a branch misprediction can be detected out-of-order. Therefore, a corrected branch might not end up beeing committed in case an even earlier branch was mispredicted (Count)
system.cpu0.branchPred.corrected_0::IndirectUncond       364168      5.88%    100.00% # Number of branches that got corrected but not yet commited. Branches get corrected by decode or after execute. Also a branch misprediction can be detected out-of-order. Therefore, a corrected branch might not end up beeing committed in case an even earlier branch was mispredicted (Count)
system.cpu0.branchPred.corrected_0::total      6189731                       # Number of branches that got corrected but not yet commited. Branches get corrected by decode or after execute. Also a branch misprediction can be detected out-of-order. Therefore, a corrected branch might not end up beeing committed in case an even earlier branch was mispredicted (Count)
system.cpu0.branchPred.earlyResteers_0::NoBranch            0                       # Number of branches that got redirected after decode. (Count)
system.cpu0.branchPred.earlyResteers_0::Return            0                       # Number of branches that got redirected after decode. (Count)
system.cpu0.branchPred.earlyResteers_0::CallDirect            0                       # Number of branches that got redirected after decode. (Count)
system.cpu0.branchPred.earlyResteers_0::CallIndirect            0                       # Number of branches that got redirected after decode. (Count)
system.cpu0.branchPred.earlyResteers_0::DirectCond            0                       # Number of branches that got redirected after decode. (Count)
system.cpu0.branchPred.earlyResteers_0::DirectUncond            0                       # Number of branches that got redirected after decode. (Count)
system.cpu0.branchPred.earlyResteers_0::IndirectCond            0                       # Number of branches that got redirected after decode. (Count)
system.cpu0.branchPred.earlyResteers_0::IndirectUncond            0                       # Number of branches that got redirected after decode. (Count)
system.cpu0.branchPred.earlyResteers_0::total            0                       # Number of branches that got redirected after decode. (Count)
system.cpu0.branchPred.committed_0::NoBranch            0      0.00%      0.00% # Number of branches finally committed  (Count)
system.cpu0.branchPred.committed_0::Return     62628096     33.86%     33.86% # Number of branches finally committed  (Count)
system.cpu0.branchPred.committed_0::CallDirect     62627808     33.86%     67.71% # Number of branches finally committed  (Count)
system.cpu0.branchPred.committed_0::CallIndirect          293      0.00%     67.71% # Number of branches finally committed  (Count)
system.cpu0.branchPred.committed_0::DirectCond     51557732     27.87%     95.58% # Number of branches finally committed  (Count)
system.cpu0.branchPred.committed_0::DirectUncond      7173105      3.88%     99.46% # Number of branches finally committed  (Count)
system.cpu0.branchPred.committed_0::IndirectCond            0      0.00%     99.46% # Number of branches finally committed  (Count)
system.cpu0.branchPred.committed_0::IndirectUncond      1000259      0.54%    100.00% # Number of branches finally committed  (Count)
system.cpu0.branchPred.committed_0::total    184987293                       # Number of branches finally committed  (Count)
system.cpu0.branchPred.mispredicted_0::NoBranch            0      0.00%      0.00% # Number of committed branches that were mispredicted. (Count)
system.cpu0.branchPred.mispredicted_0::Return         1030      0.02%      0.02% # Number of committed branches that were mispredicted. (Count)
system.cpu0.branchPred.mispredicted_0::CallDirect          509      0.01%      0.03% # Number of committed branches that were mispredicted. (Count)
system.cpu0.branchPred.mispredicted_0::CallIndirect          129      0.00%      0.03% # Number of committed branches that were mispredicted. (Count)
system.cpu0.branchPred.mispredicted_0::DirectCond      5788929     94.05%     94.08% # Number of committed branches that were mispredicted. (Count)
system.cpu0.branchPred.mispredicted_0::DirectUncond          178      0.00%     94.08% # Number of committed branches that were mispredicted. (Count)
system.cpu0.branchPred.mispredicted_0::IndirectCond            0      0.00%     94.08% # Number of committed branches that were mispredicted. (Count)
system.cpu0.branchPred.mispredicted_0::IndirectUncond       364120      5.92%    100.00% # Number of committed branches that were mispredicted. (Count)
system.cpu0.branchPred.mispredicted_0::total      6154895                       # Number of committed branches that were mispredicted. (Count)
system.cpu0.branchPred.mispredictDueToPredictor_0::NoBranch            0      0.00%      0.00% # Number of committed branches that were mispredicted by the predictor. (Count)
system.cpu0.branchPred.mispredictDueToPredictor_0::Return            0      0.00%      0.00% # Number of committed branches that were mispredicted by the predictor. (Count)
system.cpu0.branchPred.mispredictDueToPredictor_0::CallDirect            0      0.00%      0.00% # Number of committed branches that were mispredicted by the predictor. (Count)
system.cpu0.branchPred.mispredictDueToPredictor_0::CallIndirect            0      0.00%      0.00% # Number of committed branches that were mispredicted by the predictor. (Count)
system.cpu0.branchPred.mispredictDueToPredictor_0::DirectCond      5788280    100.00%    100.00% # Number of committed branches that were mispredicted by the predictor. (Count)
system.cpu0.branchPred.mispredictDueToPredictor_0::DirectUncond            0      0.00%    100.00% # Number of committed branches that were mispredicted by the predictor. (Count)
system.cpu0.branchPred.mispredictDueToPredictor_0::IndirectCond            0      0.00%    100.00% # Number of committed branches that were mispredicted by the predictor. (Count)
system.cpu0.branchPred.mispredictDueToPredictor_0::IndirectUncond            0      0.00%    100.00% # Number of committed branches that were mispredicted by the predictor. (Count)
system.cpu0.branchPred.mispredictDueToPredictor_0::total      5788280                       # Number of committed branches that were mispredicted by the predictor. (Count)
system.cpu0.branchPred.mispredictDueToBTBMiss_0::NoBranch            0      0.00%      0.00% # Number of committed branches that were mispredicted because of a BTB miss. (Count)
system.cpu0.branchPred.mispredictDueToBTBMiss_0::Return         1030      0.28%      0.28% # Number of committed branches that were mispredicted because of a BTB miss. (Count)
system.cpu0.branchPred.mispredictDueToBTBMiss_0::CallDirect          509      0.14%      0.42% # Number of committed branches that were mispredicted because of a BTB miss. (Count)
system.cpu0.branchPred.mispredictDueToBTBMiss_0::CallIndirect          129      0.04%      0.45% # Number of committed branches that were mispredicted because of a BTB miss. (Count)
system.cpu0.branchPred.mispredictDueToBTBMiss_0::DirectCond          649      0.18%      0.63% # Number of committed branches that were mispredicted because of a BTB miss. (Count)
system.cpu0.branchPred.mispredictDueToBTBMiss_0::DirectUncond          178      0.05%      0.68% # Number of committed branches that were mispredicted because of a BTB miss. (Count)
system.cpu0.branchPred.mispredictDueToBTBMiss_0::IndirectCond            0      0.00%      0.68% # Number of committed branches that were mispredicted because of a BTB miss. (Count)
system.cpu0.branchPred.mispredictDueToBTBMiss_0::IndirectUncond       364120     99.32%    100.00% # Number of committed branches that were mispredicted because of a BTB miss. (Count)
system.cpu0.branchPred.mispredictDueToBTBMiss_0::total       366615                       # Number of committed branches that were mispredicted because of a BTB miss. (Count)
system.cpu0.branchPred.targetProvider_0::NoTarget     31841653     13.84%     13.84% # The component providing the target for taken branches (Count)
system.cpu0.branchPred.targetProvider_0::BTB    120098643     52.22%     66.06% # The component providing the target for taken branches (Count)
system.cpu0.branchPred.targetProvider_0::RAS     77020099     33.49%     99.55% # The component providing the target for taken branches (Count)
system.cpu0.branchPred.targetProvider_0::Indirect      1027944      0.45%    100.00% # The component providing the target for taken branches (Count)
system.cpu0.branchPred.targetProvider_0::total    229988339                       # The component providing the target for taken branches (Count)
system.cpu0.branchPred.targetWrong_0::NoBranch      3215517     51.95%     51.95% # Number of branches where the target was incorrect or not available at prediction time. (Count)
system.cpu0.branchPred.targetWrong_0::Return      2609301     42.16%     94.10% # Number of branches where the target was incorrect or not available at prediction time. (Count)
system.cpu0.branchPred.targetWrong_0::CallDirect         1040      0.02%     94.12% # Number of branches where the target was incorrect or not available at prediction time. (Count)
system.cpu0.branchPred.targetWrong_0::CallIndirect       363860      5.88%    100.00% # Number of branches where the target was incorrect or not available at prediction time. (Count)
system.cpu0.branchPred.targetWrong_0::DirectCond            0      0.00%    100.00% # Number of branches where the target was incorrect or not available at prediction time. (Count)
system.cpu0.branchPred.targetWrong_0::DirectUncond            0      0.00%    100.00% # Number of branches where the target was incorrect or not available at prediction time. (Count)
system.cpu0.branchPred.targetWrong_0::IndirectCond            0      0.00%    100.00% # Number of branches where the target was incorrect or not available at prediction time. (Count)
system.cpu0.branchPred.targetWrong_0::IndirectUncond            0      0.00%    100.00% # Number of branches where the target was incorrect or not available at prediction time. (Count)
system.cpu0.branchPred.targetWrong_0::total      6189718                       # Number of branches where the target was incorrect or not available at prediction time. (Count)
system.cpu0.branchPred.condPredicted         63280938                       # Number of conditional branches predicted (Count)
system.cpu0.branchPred.condPredictedTaken     31454756                       # Number of conditional branches predicted as taken (Count)
system.cpu0.branchPred.condIncorrect          6189731                       # Number of conditional branches incorrect (Count)
system.cpu0.branchPred.predTakenBTBMiss          1307                       # Number of branches predicted taken but missed in BTB (Count)
system.cpu0.branchPred.BTBLookups           229988339                       # Number of BTB lookups (Count)
system.cpu0.branchPred.BTBUpdates             3215083                       # Number of BTB updates (Count)
system.cpu0.branchPred.BTBHits              141081753                       # Number of BTB hits (Count)
system.cpu0.branchPred.BTBHitRatio           0.613430                       # BTB Hit Ratio (Ratio)
system.cpu0.branchPred.BTBMispredicted           1809                       # Number BTB mispredictions. No target found or target wrong (Count)
system.cpu0.branchPred.indirectLookups        1038895                       # Number of indirect predictor lookups. (Count)
system.cpu0.branchPred.indirectHits           1027944                       # Number of indirect target hits. (Count)
system.cpu0.branchPred.indirectMisses           10951                       # Number of indirect misses. (Count)
system.cpu0.branchPred.indirectMispredicted            0                       # Number of mispredicted indirect branches. (Count)
system.cpu0.branchPred.btb.lookups::NoBranch            0      0.00%      0.00% # Number of BTB lookups (Count)
system.cpu0.branchPred.btb.lookups::Return     77020099     33.49%     33.49% # Number of BTB lookups (Count)
system.cpu0.branchPred.btb.lookups::CallDirect     77360835     33.64%     67.13% # Number of BTB lookups (Count)
system.cpu0.branchPred.btb.lookups::CallIndirect          520      0.00%     67.13% # Number of BTB lookups (Count)
system.cpu0.branchPred.btb.lookups::DirectCond     63280938     27.51%     94.64% # Number of BTB lookups (Count)
system.cpu0.branchPred.btb.lookups::DirectUncond     11287572      4.91%     99.55% # Number of BTB lookups (Count)
system.cpu0.branchPred.btb.lookups::IndirectCond            0      0.00%     99.55% # Number of BTB lookups (Count)
system.cpu0.branchPred.btb.lookups::IndirectUncond      1038375      0.45%    100.00% # Number of BTB lookups (Count)
system.cpu0.branchPred.btb.lookups::total    229988339                       # Number of BTB lookups (Count)
system.cpu0.branchPred.btb.misses::NoBranch            0      0.00%      0.00% # Number of BTB misses (Count)
system.cpu0.branchPred.btb.misses::Return     77020099     86.63%     86.63% # Number of BTB misses (Count)
system.cpu0.branchPred.btb.misses::CallDirect         1003      0.00%     86.63% # Number of BTB misses (Count)
system.cpu0.branchPred.btb.misses::CallIndirect          520      0.00%     86.63% # Number of BTB misses (Count)
system.cpu0.branchPred.btb.misses::DirectCond     10846117     12.20%     98.83% # Number of BTB misses (Count)
system.cpu0.branchPred.btb.misses::DirectUncond          472      0.00%     98.83% # Number of BTB misses (Count)
system.cpu0.branchPred.btb.misses::IndirectCond            0      0.00%     98.83% # Number of BTB misses (Count)
system.cpu0.branchPred.btb.misses::IndirectUncond      1038375      1.17%    100.00% # Number of BTB misses (Count)
system.cpu0.branchPred.btb.misses::total     88906586                       # Number of BTB misses (Count)
system.cpu0.branchPred.btb.updates::NoBranch            0      0.00%      0.00% # Number of BTB updates (Count)
system.cpu0.branchPred.btb.updates::Return            0      0.00%      0.00% # Number of BTB updates (Count)
system.cpu0.branchPred.btb.updates::CallDirect          733      0.02%      0.02% # Number of BTB updates (Count)
system.cpu0.branchPred.btb.updates::CallIndirect            0      0.00%      0.02% # Number of BTB updates (Count)
system.cpu0.branchPred.btb.updates::DirectCond      3214023     99.97%     99.99% # Number of BTB updates (Count)
system.cpu0.branchPred.btb.updates::DirectUncond          327      0.01%    100.00% # Number of BTB updates (Count)
system.cpu0.branchPred.btb.updates::IndirectCond            0      0.00%    100.00% # Number of BTB updates (Count)
system.cpu0.branchPred.btb.updates::IndirectUncond            0      0.00%    100.00% # Number of BTB updates (Count)
system.cpu0.branchPred.btb.updates::total      3215083                       # Number of BTB updates (Count)
system.cpu0.branchPred.btb.mispredict::NoBranch            0      0.00%      0.00% # Number of BTB mispredictions. No target found or target wrong. (Count)
system.cpu0.branchPred.btb.mispredict::Return            0      0.00%      0.00% # Number of BTB mispredictions. No target found or target wrong. (Count)
system.cpu0.branchPred.btb.mispredict::CallDirect          733      0.02%      0.02% # Number of BTB mispredictions. No target found or target wrong. (Count)
system.cpu0.branchPred.btb.mispredict::CallIndirect            0      0.00%      0.02% # Number of BTB mispredictions. No target found or target wrong. (Count)
system.cpu0.branchPred.btb.mispredict::DirectCond      3214023     99.97%     99.99% # Number of BTB mispredictions. No target found or target wrong. (Count)
system.cpu0.branchPred.btb.mispredict::DirectUncond          327      0.01%    100.00% # Number of BTB mispredictions. No target found or target wrong. (Count)
system.cpu0.branchPred.btb.mispredict::IndirectCond            0      0.00%    100.00% # Number of BTB mispredictions. No target found or target wrong. (Count)
system.cpu0.branchPred.btb.mispredict::IndirectUncond            0      0.00%    100.00% # Number of BTB mispredictions. No target found or target wrong. (Count)
system.cpu0.branchPred.btb.mispredict::total      3215083                       # Number of BTB mispredictions. No target found or target wrong. (Count)
system.cpu0.branchPred.btb.power_state.pwrStateResidencyTicks::UNDEFINED 491796552000                       # Cumulative time (in ticks) in various power states (Tick)
system.cpu0.branchPred.indirectBranchPred.lookups      1038895                       # Number of lookups (Count)
system.cpu0.branchPred.indirectBranchPred.hits      1027944                       # Number of hits of a tag (Count)
system.cpu0.branchPred.indirectBranchPred.misses        10951                       # Number of misses (Count)
system.cpu0.branchPred.indirectBranchPred.targetRecords       364301                       # Number of targets that where recorded/installed in the cache (Count)
system.cpu0.branchPred.indirectBranchPred.indirectRecords      1403196                       # Number of indirect branches/calls recorded in the indirect hist (Count)
system.cpu0.branchPred.indirectBranchPred.speculativeOverflows            1                       # Number of times more than the allowed capacity for speculative branches/calls where in flight and destroy the path history (Count)
system.cpu0.branchPred.ras.pushes            91753358                       # Number of times a PC was pushed onto the RAS (Count)
system.cpu0.branchPred.ras.pops              91753353                       # Number of times a PC was poped from the RAS (Count)
system.cpu0.branchPred.ras.squashes          29125257                       # Number of times the stack operation was squashed due to wrong speculation. (Count)
system.cpu0.branchPred.ras.used              62628096                       # Number of times the RAS is the provider (Count)
system.cpu0.branchPred.ras.correct           62627066                       # Number of times the RAS is the provider and the prediction is correct (Count)
system.cpu0.branchPred.ras.incorrect             1030                       # Number of times the RAS is the provider and the prediction is wrong (Count)
system.cpu0.commit.commitSquashedInsts      386095082                       # The number of squashed insts skipped by commit (Count)
system.cpu0.commit.commitNonSpecStalls        6000406                       # The number of times commit has been forced to stall to communicate backwards (Count)
system.cpu0.commit.branchMispredicts          6188979                       # The number of times a branch was mispredicted (Count)
system.cpu0.commit.numCommittedDist::samples    932512379                       # Number of insts commited each cycle (Count)
system.cpu0.commit.numCommittedDist::mean     2.317827                       # Number of insts commited each cycle (Count)
system.cpu0.commit.numCommittedDist::stdev     2.991789                       # Number of insts commited each cycle (Count)
system.cpu0.commit.numCommittedDist::underflows            0      0.00%      0.00% # Number of insts commited each cycle (Count)
system.cpu0.commit.numCommittedDist::0      423335201     45.40%     45.40% # Number of insts commited each cycle (Count)
system.cpu0.commit.numCommittedDist::1      143581273     15.40%     60.79% # Number of insts commited each cycle (Count)
system.cpu0.commit.numCommittedDist::2       43549936      4.67%     65.46% # Number of insts commited each cycle (Count)
system.cpu0.commit.numCommittedDist::3       85270255      9.14%     74.61% # Number of insts commited each cycle (Count)
system.cpu0.commit.numCommittedDist::4       26624627      2.86%     77.46% # Number of insts commited each cycle (Count)
system.cpu0.commit.numCommittedDist::5        9343251      1.00%     78.47% # Number of insts commited each cycle (Count)
system.cpu0.commit.numCommittedDist::6       15751520      1.69%     80.16% # Number of insts commited each cycle (Count)
system.cpu0.commit.numCommittedDist::7       53263692      5.71%     85.87% # Number of insts commited each cycle (Count)
system.cpu0.commit.numCommittedDist::8      131792624     14.13%    100.00% # Number of insts commited each cycle (Count)
system.cpu0.commit.numCommittedDist::overflows            0      0.00%    100.00% # Number of insts commited each cycle (Count)
system.cpu0.commit.numCommittedDist::min_value            0                       # Number of insts commited each cycle (Count)
system.cpu0.commit.numCommittedDist::max_value            8                       # Number of insts commited each cycle (Count)
system.cpu0.commit.numCommittedDist::total    932512379                       # Number of insts commited each cycle (Count)
system.cpu0.commit.amos                             0                       # Number of atomic instructions committed (Count)
system.cpu0.commit.membars                    4000268                       # Number of memory barriers committed (Count)
system.cpu0.commit.functionCalls             62628101                       # Number of function calls committed. (Count)
system.cpu0.commit.committedInstType_0::No_OpClass     63128539      2.92%      2.92% # Class of committed instruction (Count)
system.cpu0.commit.committedInstType_0::IntAlu   1276649006     59.07%     61.99% # Class of committed instruction (Count)
system.cpu0.commit.committedInstType_0::IntMult      2000156      0.09%     62.08% # Class of committed instruction (Count)
system.cpu0.commit.committedInstType_0::IntDiv           35      0.00%     62.08% # Class of committed instruction (Count)
system.cpu0.commit.committedInstType_0::FloatAdd      2001630      0.09%     62.17% # Class of committed instruction (Count)
system.cpu0.commit.committedInstType_0::FloatCmp            0      0.00%     62.17% # Class of committed instruction (Count)
system.cpu0.commit.committedInstType_0::FloatCvt            0      0.00%     62.17% # Class of committed instruction (Count)
system.cpu0.commit.committedInstType_0::FloatMult            0      0.00%     62.17% # Class of committed instruction (Count)
system.cpu0.commit.committedInstType_0::FloatMultAcc            0      0.00%     62.17% # Class of committed instruction (Count)
system.cpu0.commit.committedInstType_0::FloatDiv            0      0.00%     62.17% # Class of committed instruction (Count)
system.cpu0.commit.committedInstType_0::FloatMisc            0      0.00%     62.17% # Class of committed instruction (Count)
system.cpu0.commit.committedInstType_0::FloatSqrt            0      0.00%     62.17% # Class of committed instruction (Count)
system.cpu0.commit.committedInstType_0::SimdAdd           26      0.00%     62.17% # Class of committed instruction (Count)
system.cpu0.commit.committedInstType_0::SimdAddAcc            0      0.00%     62.17% # Class of committed instruction (Count)
system.cpu0.commit.committedInstType_0::SimdAlu          994      0.00%     62.17% # Class of committed instruction (Count)
system.cpu0.commit.committedInstType_0::SimdCmp            6      0.00%     62.17% # Class of committed instruction (Count)
system.cpu0.commit.committedInstType_0::SimdCvt          438      0.00%     62.17% # Class of committed instruction (Count)
system.cpu0.commit.committedInstType_0::SimdMisc      2002148      0.09%     62.26% # Class of committed instruction (Count)
system.cpu0.commit.committedInstType_0::SimdMult            0      0.00%     62.26% # Class of committed instruction (Count)
system.cpu0.commit.committedInstType_0::SimdMultAcc            0      0.00%     62.26% # Class of committed instruction (Count)
system.cpu0.commit.committedInstType_0::SimdMatMultAcc            0      0.00%     62.26% # Class of committed instruction (Count)
system.cpu0.commit.committedInstType_0::SimdShift            0      0.00%     62.26% # Class of committed instruction (Count)
system.cpu0.commit.committedInstType_0::SimdShiftAcc            0      0.00%     62.26% # Class of committed instruction (Count)
system.cpu0.commit.committedInstType_0::SimdDiv            0      0.00%     62.26% # Class of committed instruction (Count)
system.cpu0.commit.committedInstType_0::SimdSqrt            0      0.00%     62.26% # Class of committed instruction (Count)
system.cpu0.commit.committedInstType_0::SimdFloatAdd           19      0.00%     62.26% # Class of committed instruction (Count)
system.cpu0.commit.committedInstType_0::SimdFloatAlu            0      0.00%     62.26% # Class of committed instruction (Count)
system.cpu0.commit.committedInstType_0::SimdFloatCmp            0      0.00%     62.26% # Class of committed instruction (Count)
system.cpu0.commit.committedInstType_0::SimdFloatCvt            9      0.00%     62.26% # Class of committed instruction (Count)
system.cpu0.commit.committedInstType_0::SimdFloatDiv            2      0.00%     62.26% # Class of committed instruction (Count)
system.cpu0.commit.committedInstType_0::SimdFloatMisc            0      0.00%     62.26% # Class of committed instruction (Count)
system.cpu0.commit.committedInstType_0::SimdFloatMult           12      0.00%     62.26% # Class of committed instruction (Count)
system.cpu0.commit.committedInstType_0::SimdFloatMultAcc            0      0.00%     62.26% # Class of committed instruction (Count)
system.cpu0.commit.committedInstType_0::SimdFloatMatMultAcc            0      0.00%     62.26% # Class of committed instruction (Count)
system.cpu0.commit.committedInstType_0::SimdFloatSqrt            0      0.00%     62.26% # Class of committed instruction (Count)
system.cpu0.commit.committedInstType_0::SimdReduceAdd            0      0.00%     62.26% # Class of committed instruction (Count)
system.cpu0.commit.committedInstType_0::SimdReduceAlu            0      0.00%     62.26% # Class of committed instruction (Count)
system.cpu0.commit.committedInstType_0::SimdReduceCmp            0      0.00%     62.26% # Class of committed instruction (Count)
system.cpu0.commit.committedInstType_0::SimdFloatReduceAdd            0      0.00%     62.26% # Class of committed instruction (Count)
system.cpu0.commit.committedInstType_0::SimdFloatReduceCmp            0      0.00%     62.26% # Class of committed instruction (Count)
system.cpu0.commit.committedInstType_0::SimdAes            0      0.00%     62.26% # Class of committed instruction (Count)
system.cpu0.commit.committedInstType_0::SimdAesMix            0      0.00%     62.26% # Class of committed instruction (Count)
system.cpu0.commit.committedInstType_0::SimdSha1Hash            0      0.00%     62.26% # Class of committed instruction (Count)
system.cpu0.commit.committedInstType_0::SimdSha1Hash2            0      0.00%     62.26% # Class of committed instruction (Count)
system.cpu0.commit.committedInstType_0::SimdSha256Hash            0      0.00%     62.26% # Class of committed instruction (Count)
system.cpu0.commit.committedInstType_0::SimdSha256Hash2            0      0.00%     62.26% # Class of committed instruction (Count)
system.cpu0.commit.committedInstType_0::SimdShaSigma2            0      0.00%     62.26% # Class of committed instruction (Count)
system.cpu0.commit.committedInstType_0::SimdShaSigma3            0      0.00%     62.26% # Class of committed instruction (Count)
system.cpu0.commit.committedInstType_0::SimdPredAlu            0      0.00%     62.26% # Class of committed instruction (Count)
system.cpu0.commit.committedInstType_0::Matrix            0      0.00%     62.26% # Class of committed instruction (Count)
system.cpu0.commit.committedInstType_0::MatrixMov            0      0.00%     62.26% # Class of committed instruction (Count)
system.cpu0.commit.committedInstType_0::MatrixOP            0      0.00%     62.26% # Class of committed instruction (Count)
system.cpu0.commit.committedInstType_0::MemRead    503121520     23.28%     85.54% # Class of committed instruction (Count)
system.cpu0.commit.committedInstType_0::MemWrite    302038772     13.97%     99.52% # Class of committed instruction (Count)
system.cpu0.commit.committedInstType_0::FloatMemRead      4229290      0.20%     99.71% # Class of committed instruction (Count)
system.cpu0.commit.committedInstType_0::FloatMemWrite      6230027      0.29%    100.00% # Class of committed instruction (Count)
system.cpu0.commit.committedInstType_0::IprAccess            0      0.00%    100.00% # Class of committed instruction (Count)
system.cpu0.commit.committedInstType_0::InstPrefetch            0      0.00%    100.00% # Class of committed instruction (Count)
system.cpu0.commit.committedInstType_0::SimdUnitStrideLoad            0      0.00%    100.00% # Class of committed instruction (Count)
system.cpu0.commit.committedInstType_0::SimdUnitStrideStore            0      0.00%    100.00% # Class of committed instruction (Count)
system.cpu0.commit.committedInstType_0::SimdUnitStrideMaskLoad            0      0.00%    100.00% # Class of committed instruction (Count)
system.cpu0.commit.committedInstType_0::SimdUnitStrideMaskStore            0      0.00%    100.00% # Class of committed instruction (Count)
system.cpu0.commit.committedInstType_0::SimdStridedLoad            0      0.00%    100.00% # Class of committed instruction (Count)
system.cpu0.commit.committedInstType_0::SimdStridedStore            0      0.00%    100.00% # Class of committed instruction (Count)
system.cpu0.commit.committedInstType_0::SimdIndexedLoad            0      0.00%    100.00% # Class of committed instruction (Count)
system.cpu0.commit.committedInstType_0::SimdIndexedStore            0      0.00%    100.00% # Class of committed instruction (Count)
system.cpu0.commit.committedInstType_0::SimdWholeRegisterLoad            0      0.00%    100.00% # Class of committed instruction (Count)
system.cpu0.commit.committedInstType_0::SimdWholeRegisterStore            0      0.00%    100.00% # Class of committed instruction (Count)
system.cpu0.commit.committedInstType_0::SimdUnitStrideFaultOnlyFirstLoad            0      0.00%    100.00% # Class of committed instruction (Count)
system.cpu0.commit.committedInstType_0::SimdUnitStrideSegmentedLoad            0      0.00%    100.00% # Class of committed instruction (Count)
system.cpu0.commit.committedInstType_0::SimdUnitStrideSegmentedStore            0      0.00%    100.00% # Class of committed instruction (Count)
system.cpu0.commit.committedInstType_0::SimdUnitStrideSegmentedFaultOnlyFirstLoad            0      0.00%    100.00% # Class of committed instruction (Count)
system.cpu0.commit.committedInstType_0::SimdStrideSegmentedLoad            0      0.00%    100.00% # Class of committed instruction (Count)
system.cpu0.commit.committedInstType_0::SimdStrideSegmentedStore            0      0.00%    100.00% # Class of committed instruction (Count)
system.cpu0.commit.committedInstType_0::SimdExt            0      0.00%    100.00% # Class of committed instruction (Count)
system.cpu0.commit.committedInstType_0::SimdFloatExt            0      0.00%    100.00% # Class of committed instruction (Count)
system.cpu0.commit.committedInstType_0::SimdConfig            0      0.00%    100.00% # Class of committed instruction (Count)
system.cpu0.commit.committedInstType_0::total   2161402629                       # Class of committed instruction (Count)
system.cpu0.commit.commitEligibleSamples    131792624                       # number cycles where commit BW limit reached (Cycle)
system.cpu0.commitStats0.numInsts          1368367470                       # Number of instructions committed (thread level) (Count)
system.cpu0.commitStats0.numOps            2161402629                       # Number of ops (including micro ops) committed (thread level) (Count)
system.cpu0.commitStats0.numInstsNotNOP    1368367470                       # Number of instructions committed excluding NOPs or prefetches (Count)
system.cpu0.commitStats0.numOpsNotNOP      2161402629                       # Number of Ops (including micro ops) Simulated (Count)
system.cpu0.commitStats0.cpi                 0.718808                       # CPI: cycles per instruction (thread level) ((Cycle/Count))
system.cpu0.commitStats0.ipc                 1.391193                       # IPC: instructions per cycle (thread level) ((Count/Cycle))
system.cpu0.commitStats0.numMemRefs         815619609                       # Number of memory references committed (Count)
system.cpu0.commitStats0.numFpInsts          15465562                       # Number of float instructions (Count)
system.cpu0.commitStats0.numIntInsts       2085610452                       # Number of integer instructions (Count)
system.cpu0.commitStats0.numLoadInsts       507350810                       # Number of load instructions (Count)
system.cpu0.commitStats0.numStoreInsts      308268799                       # Number of store instructions (Count)
system.cpu0.commitStats0.numVecInsts                0                       # Number of vector instructions (Count)
system.cpu0.commitStats0.committedInstType::No_OpClass     63128539      2.92%      2.92% # Class of committed instruction. (Count)
system.cpu0.commitStats0.committedInstType::IntAlu   1276649006     59.07%     61.99% # Class of committed instruction. (Count)
system.cpu0.commitStats0.committedInstType::IntMult      2000156      0.09%     62.08% # Class of committed instruction. (Count)
system.cpu0.commitStats0.committedInstType::IntDiv           35      0.00%     62.08% # Class of committed instruction. (Count)
system.cpu0.commitStats0.committedInstType::FloatAdd      2001630      0.09%     62.17% # Class of committed instruction. (Count)
system.cpu0.commitStats0.committedInstType::FloatCmp            0      0.00%     62.17% # Class of committed instruction. (Count)
system.cpu0.commitStats0.committedInstType::FloatCvt            0      0.00%     62.17% # Class of committed instruction. (Count)
system.cpu0.commitStats0.committedInstType::FloatMult            0      0.00%     62.17% # Class of committed instruction. (Count)
system.cpu0.commitStats0.committedInstType::FloatMultAcc            0      0.00%     62.17% # Class of committed instruction. (Count)
system.cpu0.commitStats0.committedInstType::FloatDiv            0      0.00%     62.17% # Class of committed instruction. (Count)
system.cpu0.commitStats0.committedInstType::FloatMisc            0      0.00%     62.17% # Class of committed instruction. (Count)
system.cpu0.commitStats0.committedInstType::FloatSqrt            0      0.00%     62.17% # Class of committed instruction. (Count)
system.cpu0.commitStats0.committedInstType::SimdAdd           26      0.00%     62.17% # Class of committed instruction. (Count)
system.cpu0.commitStats0.committedInstType::SimdAddAcc            0      0.00%     62.17% # Class of committed instruction. (Count)
system.cpu0.commitStats0.committedInstType::SimdAlu          994      0.00%     62.17% # Class of committed instruction. (Count)
system.cpu0.commitStats0.committedInstType::SimdCmp            6      0.00%     62.17% # Class of committed instruction. (Count)
system.cpu0.commitStats0.committedInstType::SimdCvt          438      0.00%     62.17% # Class of committed instruction. (Count)
system.cpu0.commitStats0.committedInstType::SimdMisc      2002148      0.09%     62.26% # Class of committed instruction. (Count)
system.cpu0.commitStats0.committedInstType::SimdMult            0      0.00%     62.26% # Class of committed instruction. (Count)
system.cpu0.commitStats0.committedInstType::SimdMultAcc            0      0.00%     62.26% # Class of committed instruction. (Count)
system.cpu0.commitStats0.committedInstType::SimdMatMultAcc            0      0.00%     62.26% # Class of committed instruction. (Count)
system.cpu0.commitStats0.committedInstType::SimdShift            0      0.00%     62.26% # Class of committed instruction. (Count)
system.cpu0.commitStats0.committedInstType::SimdShiftAcc            0      0.00%     62.26% # Class of committed instruction. (Count)
system.cpu0.commitStats0.committedInstType::SimdDiv            0      0.00%     62.26% # Class of committed instruction. (Count)
system.cpu0.commitStats0.committedInstType::SimdSqrt            0      0.00%     62.26% # Class of committed instruction. (Count)
system.cpu0.commitStats0.committedInstType::SimdFloatAdd           19      0.00%     62.26% # Class of committed instruction. (Count)
system.cpu0.commitStats0.committedInstType::SimdFloatAlu            0      0.00%     62.26% # Class of committed instruction. (Count)
system.cpu0.commitStats0.committedInstType::SimdFloatCmp            0      0.00%     62.26% # Class of committed instruction. (Count)
system.cpu0.commitStats0.committedInstType::SimdFloatCvt            9      0.00%     62.26% # Class of committed instruction. (Count)
system.cpu0.commitStats0.committedInstType::SimdFloatDiv            2      0.00%     62.26% # Class of committed instruction. (Count)
system.cpu0.commitStats0.committedInstType::SimdFloatMisc            0      0.00%     62.26% # Class of committed instruction. (Count)
system.cpu0.commitStats0.committedInstType::SimdFloatMult           12      0.00%     62.26% # Class of committed instruction. (Count)
system.cpu0.commitStats0.committedInstType::SimdFloatMultAcc            0      0.00%     62.26% # Class of committed instruction. (Count)
system.cpu0.commitStats0.committedInstType::SimdFloatMatMultAcc            0      0.00%     62.26% # Class of committed instruction. (Count)
system.cpu0.commitStats0.committedInstType::SimdFloatSqrt            0      0.00%     62.26% # Class of committed instruction. (Count)
system.cpu0.commitStats0.committedInstType::SimdReduceAdd            0      0.00%     62.26% # Class of committed instruction. (Count)
system.cpu0.commitStats0.committedInstType::SimdReduceAlu            0      0.00%     62.26% # Class of committed instruction. (Count)
system.cpu0.commitStats0.committedInstType::SimdReduceCmp            0      0.00%     62.26% # Class of committed instruction. (Count)
system.cpu0.commitStats0.committedInstType::SimdFloatReduceAdd            0      0.00%     62.26% # Class of committed instruction. (Count)
system.cpu0.commitStats0.committedInstType::SimdFloatReduceCmp            0      0.00%     62.26% # Class of committed instruction. (Count)
system.cpu0.commitStats0.committedInstType::SimdAes            0      0.00%     62.26% # Class of committed instruction. (Count)
system.cpu0.commitStats0.committedInstType::SimdAesMix            0      0.00%     62.26% # Class of committed instruction. (Count)
system.cpu0.commitStats0.committedInstType::SimdSha1Hash            0      0.00%     62.26% # Class of committed instruction. (Count)
system.cpu0.commitStats0.committedInstType::SimdSha1Hash2            0      0.00%     62.26% # Class of committed instruction. (Count)
system.cpu0.commitStats0.committedInstType::SimdSha256Hash            0      0.00%     62.26% # Class of committed instruction. (Count)
system.cpu0.commitStats0.committedInstType::SimdSha256Hash2            0      0.00%     62.26% # Class of committed instruction. (Count)
system.cpu0.commitStats0.committedInstType::SimdShaSigma2            0      0.00%     62.26% # Class of committed instruction. (Count)
system.cpu0.commitStats0.committedInstType::SimdShaSigma3            0      0.00%     62.26% # Class of committed instruction. (Count)
system.cpu0.commitStats0.committedInstType::SimdPredAlu            0      0.00%     62.26% # Class of committed instruction. (Count)
system.cpu0.commitStats0.committedInstType::Matrix            0      0.00%     62.26% # Class of committed instruction. (Count)
system.cpu0.commitStats0.committedInstType::MatrixMov            0      0.00%     62.26% # Class of committed instruction. (Count)
system.cpu0.commitStats0.committedInstType::MatrixOP            0      0.00%     62.26% # Class of committed instruction. (Count)
system.cpu0.commitStats0.committedInstType::MemRead    503121520     23.28%     85.54% # Class of committed instruction. (Count)
system.cpu0.commitStats0.committedInstType::MemWrite    302038772     13.97%     99.52% # Class of committed instruction. (Count)
system.cpu0.commitStats0.committedInstType::FloatMemRead      4229290      0.20%     99.71% # Class of committed instruction. (Count)
system.cpu0.commitStats0.committedInstType::FloatMemWrite      6230027      0.29%    100.00% # Class of committed instruction. (Count)
system.cpu0.commitStats0.committedInstType::IprAccess            0      0.00%    100.00% # Class of committed instruction. (Count)
system.cpu0.commitStats0.committedInstType::InstPrefetch            0      0.00%    100.00% # Class of committed instruction. (Count)
system.cpu0.commitStats0.committedInstType::SimdUnitStrideLoad            0      0.00%    100.00% # Class of committed instruction. (Count)
system.cpu0.commitStats0.committedInstType::SimdUnitStrideStore            0      0.00%    100.00% # Class of committed instruction. (Count)
system.cpu0.commitStats0.committedInstType::SimdUnitStrideMaskLoad            0      0.00%    100.00% # Class of committed instruction. (Count)
system.cpu0.commitStats0.committedInstType::SimdUnitStrideMaskStore            0      0.00%    100.00% # Class of committed instruction. (Count)
system.cpu0.commitStats0.committedInstType::SimdStridedLoad            0      0.00%    100.00% # Class of committed instruction. (Count)
system.cpu0.commitStats0.committedInstType::SimdStridedStore            0      0.00%    100.00% # Class of committed instruction. (Count)
system.cpu0.commitStats0.committedInstType::SimdIndexedLoad            0      0.00%    100.00% # Class of committed instruction. (Count)
system.cpu0.commitStats0.committedInstType::SimdIndexedStore            0      0.00%    100.00% # Class of committed instruction. (Count)
system.cpu0.commitStats0.committedInstType::SimdWholeRegisterLoad            0      0.00%    100.00% # Class of committed instruction. (Count)
system.cpu0.commitStats0.committedInstType::SimdWholeRegisterStore            0      0.00%    100.00% # Class of committed instruction. (Count)
system.cpu0.commitStats0.committedInstType::SimdUnitStrideFaultOnlyFirstLoad            0      0.00%    100.00% # Class of committed instruction. (Count)
system.cpu0.commitStats0.committedInstType::SimdUnitStrideSegmentedLoad            0      0.00%    100.00% # Class of committed instruction. (Count)
system.cpu0.commitStats0.committedInstType::SimdUnitStrideSegmentedStore            0      0.00%    100.00% # Class of committed instruction. (Count)
system.cpu0.commitStats0.committedInstType::SimdUnitStrideSegmentedFaultOnlyFirstLoad            0      0.00%    100.00% # Class of committed instruction. (Count)
system.cpu0.commitStats0.committedInstType::SimdStrideSegmentedLoad            0      0.00%    100.00% # Class of committed instruction. (Count)
[...]
system.mem_ctrls.dram.bytesPerActivate::gmean   194.563466                       # Bytes accessed per row activation (Byte)
system.mem_ctrls.dram.bytesPerActivate::stdev   343.011941                       # Bytes accessed per row activation (Byte)
system.mem_ctrls.dram.bytesPerActivate::0-127       183339     34.72%     34.72% # Bytes accessed per row activation (Byte)
system.mem_ctrls.dram.bytesPerActivate::128-255       128749     24.38%     59.11% # Bytes accessed per row activation (Byte)
system.mem_ctrls.dram.bytesPerActivate::256-383        28945      5.48%     64.59% # Bytes accessed per row activation (Byte)
system.mem_ctrls.dram.bytesPerActivate::384-511        38528      7.30%     71.88% # Bytes accessed per row activation (Byte)
system.mem_ctrls.dram.bytesPerActivate::512-639        37820      7.16%     79.05% # Bytes accessed per row activation (Byte)
system.mem_ctrls.dram.bytesPerActivate::640-767        14347      2.72%     81.76% # Bytes accessed per row activation (Byte)
system.mem_ctrls.dram.bytesPerActivate::768-895        13385      2.53%     84.30% # Bytes accessed per row activation (Byte)
system.mem_ctrls.dram.bytesPerActivate::896-1023        18744      3.55%     87.85% # Bytes accessed per row activation (Byte)
system.mem_ctrls.dram.bytesPerActivate::1024-1151        64166     12.15%    100.00% # Bytes accessed per row activation (Byte)
system.mem_ctrls.dram.bytesPerActivate::total       528023                       # Bytes accessed per row activation (Byte)
system.mem_ctrls.dram.dramBytesRead         109491776                       # Total bytes read (Byte)
system.mem_ctrls.dram.dramBytesWritten       67763136                       # Total bytes written (Byte)
system.mem_ctrls.dram.avgRdBW              222.636323                       # Average DRAM read bandwidth in MiBytes/s ((Byte/Second))
system.mem_ctrls.dram.avgWrBW              137.786928                       # Average DRAM write bandwidth in MiBytes/s ((Byte/Second))
system.mem_ctrls.dram.peakBW                 12800.00                       # Theoretical peak bandwidth in MiByte/s ((Byte/Second))
system.mem_ctrls.dram.busUtil                    2.82                       # Data bus utilization in percentage (Ratio)
system.mem_ctrls.dram.busUtilRead                1.74                       # Data bus utilization in percentage for reads (Ratio)
system.mem_ctrls.dram.busUtilWrite               1.08                       # Data bus utilization in percentage for writes (Ratio)
system.mem_ctrls.dram.pageHitRate               80.93                       # Row buffer hit rate, read and write combined (Ratio)
system.mem_ctrls.dram.power_state.pwrStateResidencyTicks::UNDEFINED 491796552000                       # Cumulative time (in ticks) in various power states (Tick)
system.mem_ctrls.dram.rank0.actEnergy      1885645440                       # Energy for activate commands per rank (pJ) (Joule)
system.mem_ctrls.dram.rank0.preEnergy      1002240525                       # Energy for precharge commands per rank (pJ) (Joule)
system.mem_ctrls.dram.rank0.readEnergy     6103293420                       # Energy for read commands per rank (pJ) (Joule)
system.mem_ctrls.dram.rank0.writeEnergy    2762549280                       # Energy for write commands per rank (pJ) (Joule)
system.mem_ctrls.dram.rank0.refreshEnergy 38821891680.000008                       # Energy for refresh commands per rank (pJ) (Joule)
system.mem_ctrls.dram.rank0.actBackEnergy 153295635270                       # Energy for active background per rank (pJ) (Joule)
system.mem_ctrls.dram.rank0.preBackEnergy  59758814880                       # Energy for precharge background per rank (pJ) (Joule)
system.mem_ctrls.dram.rank0.actPowerDownEnergy            0                       # Energy for active power-down per rank (pJ) (Joule)
system.mem_ctrls.dram.rank0.prePowerDownEnergy            0                       # Energy for precharge power-down per rank (pJ) (Joule)
system.mem_ctrls.dram.rank0.selfRefreshEnergy            0                       # Energy for self refresh per rank (pJ) (Joule)
system.mem_ctrls.dram.rank0.totalEnergy  263630070495                       # Total energy per rank (pJ) (Joule)
system.mem_ctrls.dram.rank0.averagePower   536.055142                       # Core power per rank (mW) (Watt)
system.mem_ctrls.dram.rank0.totalIdleTime            0                       # Total Idle time Per DRAM Rank (Tick)
system.mem_ctrls.dram.rank0.pwrStateTime::IDLE 153502687000                       # Time in different power states (Tick)
system.mem_ctrls.dram.rank0.pwrStateTime::REF  16422120000                       # Time in different power states (Tick)
system.mem_ctrls.dram.rank0.pwrStateTime::SREF            0                       # Time in different power states (Tick)
system.mem_ctrls.dram.rank0.pwrStateTime::PRE_PDN            0                       # Time in different power states (Tick)
system.mem_ctrls.dram.rank0.pwrStateTime::ACT 321871745000                       # Time in different power states (Tick)
system.mem_ctrls.dram.rank0.pwrStateTime::ACT_PDN            0                       # Time in different power states (Tick)
system.mem_ctrls.dram.rank1.actEnergy      1884467340                       # Energy for activate commands per rank (pJ) (Joule)
system.mem_ctrls.dram.rank1.preEnergy      1001606760                       # Energy for precharge commands per rank (pJ) (Joule)
system.mem_ctrls.dram.rank1.readEnergy     6111882840                       # Energy for read commands per rank (pJ) (Joule)
system.mem_ctrls.dram.rank1.writeEnergy    2764381500                       # Energy for write commands per rank (pJ) (Joule)
system.mem_ctrls.dram.rank1.refreshEnergy 38821891680.000008                       # Energy for refresh commands per rank (pJ) (Joule)
system.mem_ctrls.dram.rank1.actBackEnergy 152240272290                       # Energy for active background per rank (pJ) (Joule)
system.mem_ctrls.dram.rank1.preBackEnergy  60647541600                       # Energy for precharge background per rank (pJ) (Joule)
system.mem_ctrls.dram.rank1.actPowerDownEnergy            0                       # Energy for active power-down per rank (pJ) (Joule)
system.mem_ctrls.dram.rank1.prePowerDownEnergy            0                       # Energy for precharge power-down per rank (pJ) (Joule)
system.mem_ctrls.dram.rank1.selfRefreshEnergy            0                       # Energy for self refresh per rank (pJ) (Joule)
system.mem_ctrls.dram.rank1.totalEnergy  263472044010                       # Total energy per rank (pJ) (Joule)
system.mem_ctrls.dram.rank1.averagePower   535.733817                       # Core power per rank (mW) (Watt)
system.mem_ctrls.dram.rank1.totalIdleTime            0                       # Total Idle time Per DRAM Rank (Tick)
system.mem_ctrls.dram.rank1.pwrStateTime::IDLE 155764219750                       # Time in different power states (Tick)
system.mem_ctrls.dram.rank1.pwrStateTime::REF  16422120000                       # Time in different power states (Tick)
system.mem_ctrls.dram.rank1.pwrStateTime::SREF            0                       # Time in different power states (Tick)
system.mem_ctrls.dram.rank1.pwrStateTime::PRE_PDN            0                       # Time in different power states (Tick)
system.mem_ctrls.dram.rank1.pwrStateTime::ACT 319610212250                       # Time in different power states (Tick)
system.mem_ctrls.dram.rank1.pwrStateTime::ACT_PDN            0                       # Time in different power states (Tick)
system.mem_ctrls.power_state.pwrStateResidencyTicks::UNDEFINED 491796552000                       # Cumulative time (in ticks) in various power states (Tick)
system.membus.transDist::ReadResp              750085                       # Transaction distribution (Count)
system.membus.transDist::WritebackDirty       1058829                       # Transaction distribution (Count)
system.membus.transDist::CleanEvict            649056                       # Transaction distribution (Count)
system.membus.transDist::UpgradeReq                24                       # Transaction distribution (Count)
system.membus.transDist::ReadExReq             963138                       # Transaction distribution (Count)
system.membus.transDist::ReadExResp            962703                       # Transaction distribution (Count)
system.membus.transDist::ReadSharedReq         750085                       # Transaction distribution (Count)
system.membus.pktCount_system.l2.mem_side_port::system.mem_ctrls.port      5133920                       # Packet count per connected requestor and responder (Count)
system.membus.pktCount_system.l2.mem_side_port::total      5133920                       # Packet count per connected requestor and responder (Count)
system.membus.pktCount::total                 5133920                       # Packet count per connected requestor and responder (Count)
system.membus.pktSize_system.l2.mem_side_port::system.mem_ctrls.port    177383488                       # Cumulative packet size per connected requestor and responder (Byte)
system.membus.pktSize_system.l2.mem_side_port::total    177383488                       # Cumulative packet size per connected requestor and responder (Byte)
system.membus.pktSize::total                177383488                       # Cumulative packet size per connected requestor and responder (Byte)
system.membus.snoops                              457                       # Total snoops (Count)
system.membus.snoopTraffic                          0                       # Total snoop traffic (Byte)
system.membus.snoopFanout::samples            1713247                       # Request fanout histogram (Count)
system.membus.snoopFanout::mean                     0                       # Request fanout histogram (Count)
system.membus.snoopFanout::stdev                    0                       # Request fanout histogram (Count)
system.membus.snoopFanout::underflows               0      0.00%      0.00% # Request fanout histogram (Count)
system.membus.snoopFanout::0                  1713247    100.00%    100.00% # Request fanout histogram (Count)
system.membus.snoopFanout::1                        0      0.00%    100.00% # Request fanout histogram (Count)
system.membus.snoopFanout::overflows                0      0.00%    100.00% # Request fanout histogram (Count)
system.membus.snoopFanout::min_value                0                       # Request fanout histogram (Count)
system.membus.snoopFanout::max_value                0                       # Request fanout histogram (Count)
system.membus.snoopFanout::total              1713247                       # Request fanout histogram (Count)
system.membus.power_state.pwrStateResidencyTicks::UNDEFINED 491796552000                       # Cumulative time (in ticks) in various power states (Tick)
system.membus.reqLayer4.occupancy          7968107000                       # Layer occupancy (ticks) (Tick)
system.membus.reqLayer4.utilization               0.0                       # Layer utilization (Ratio)
system.membus.respLayer1.occupancy         9101595000                       # Layer occupancy (ticks) (Tick)
system.membus.respLayer1.utilization              0.0                       # Layer utilization (Ratio)
system.membus.snoop_filter.totRequests        3421132                       # Total number of requests made to the snoop filter. (Count)
system.membus.snoop_filter.hitSingleRequests      1708561                       # Number of requests hitting in the snoop filter with a single holder of the requested data. (Count)
system.membus.snoop_filter.hitMultiRequests            0                       # Number of requests hitting in the snoop filter with multiple (>1) holders of the requested data. (Count)
system.membus.snoop_filter.totSnoops                0                       # Total number of snoops made to the snoop filter. (Count)
system.membus.snoop_filter.hitSingleSnoops            0                       # Number of snoops hitting in the snoop filter with a single holder of the requested data. (Count)
system.membus.snoop_filter.hitMultiSnoops            0                       # Number of snoops hitting in the snoop filter with multiple (>1) holders of the requested data. (Count)
system.tol2bus.transDist::ReadResp             888623                       # Transaction distribution (Count)
system.tol2bus.transDist::WritebackDirty      2356563                       # Transaction distribution (Count)
system.tol2bus.transDist::WritebackClean         2375                       # Transaction distribution (Count)
system.tol2bus.transDist::CleanEvict          1620718                       # Transaction distribution (Count)
system.tol2bus.transDist::UpgradeReq               33                       # Transaction distribution (Count)
system.tol2bus.transDist::UpgradeResp              33                       # Transaction distribution (Count)
system.tol2bus.transDist::ReadExReq           1077479                       # Transaction distribution (Count)
system.tol2bus.transDist::ReadExResp          1077479                       # Transaction distribution (Count)
system.tol2bus.transDist::ReadCleanReq           2842                       # Transaction distribution (Count)
system.tol2bus.transDist::ReadSharedReq        885782                       # Transaction distribution (Count)
system.tol2bus.pktCount_system.cpu0.icache.mem_side_port::system.l2.cpu_side_port         7430                       # Packet count per connected requestor and responder (Count)
system.tol2bus.pktCount_system.cpu0.dcache.mem_side_port::system.l2.cpu_side_port      3599733                       # Packet count per connected requestor and responder (Count)
system.tol2bus.pktCount_system.cpu1.icache.mem_side_port::system.l2.cpu_side_port          626                       # Packet count per connected requestor and responder (Count)
system.tol2bus.pktCount_system.cpu1.dcache.mem_side_port::system.l2.cpu_side_port      2287071                       # Packet count per connected requestor and responder (Count)
system.tol2bus.pktCount::total                5894860                       # Packet count per connected requestor and responder (Count)
system.tol2bus.pktSize_system.cpu0.icache.mem_side_port::system.l2.cpu_side_port       311424                       # Cumulative packet size per connected requestor and responder (Byte)
system.tol2bus.pktSize_system.cpu0.dcache.mem_side_port::system.l2.cpu_side_port    128640960                       # Cumulative packet size per connected requestor and responder (Byte)
system.tol2bus.pktSize_system.cpu1.icache.mem_side_port::system.l2.cpu_side_port        22272                       # Cumulative packet size per connected requestor and responder (Byte)
system.tol2bus.pktSize_system.cpu1.dcache.mem_side_port::system.l2.cpu_side_port     80003328                       # Cumulative packet size per connected requestor and responder (Byte)
system.tol2bus.pktSize::total               208977984                       # Cumulative packet size per connected requestor and responder (Byte)
system.tol2bus.snoops                         2017067                       # Total snoops (Count)
system.tol2bus.snoopTraffic                  67824576                       # Total snoop traffic (Byte)
system.tol2bus.snoopFanout::samples           3982251                       # Request fanout histogram (Count)
system.tol2bus.snoopFanout::mean             0.126788                       # Request fanout histogram (Count)
system.tol2bus.snoopFanout::stdev            0.332920                       # Request fanout histogram (Count)
system.tol2bus.snoopFanout::underflows              0      0.00%      0.00% # Request fanout histogram (Count)
system.tol2bus.snoopFanout::0                 3477595     87.33%     87.33% # Request fanout histogram (Count)
system.tol2bus.snoopFanout::1                  504411     12.67%     99.99% # Request fanout histogram (Count)
system.tol2bus.snoopFanout::2                     245      0.01%    100.00% # Request fanout histogram (Count)
system.tol2bus.snoopFanout::3                       0      0.00%    100.00% # Request fanout histogram (Count)
system.tol2bus.snoopFanout::4                       0      0.00%    100.00% # Request fanout histogram (Count)
system.tol2bus.snoopFanout::5                       0      0.00%    100.00% # Request fanout histogram (Count)
system.tol2bus.snoopFanout::6                       0      0.00%    100.00% # Request fanout histogram (Count)
system.tol2bus.snoopFanout::7                       0      0.00%    100.00% # Request fanout histogram (Count)
system.tol2bus.snoopFanout::8                       0      0.00%    100.00% # Request fanout histogram (Count)
system.tol2bus.snoopFanout::overflows               0      0.00%    100.00% # Request fanout histogram (Count)
system.tol2bus.snoopFanout::min_value               0                       # Request fanout histogram (Count)
system.tol2bus.snoopFanout::max_value               2                       # Request fanout histogram (Count)
system.tol2bus.snoopFanout::total             3982251                       # Request fanout histogram (Count)
system.tol2bus.power_state.pwrStateResidencyTicks::UNDEFINED 491796552000                       # Cumulative time (in ticks) in various power states (Tick)
system.tol2bus.reqLayer0.occupancy         3264949496                       # Layer occupancy (ticks) (Tick)
system.tol2bus.reqLayer0.utilization              0.0                       # Layer utilization (Ratio)
system.tol2bus.respLayer0.occupancy           3847993                       # Layer occupancy (ticks) (Tick)
system.tol2bus.respLayer0.utilization             0.0                       # Layer utilization (Ratio)
system.tol2bus.respLayer1.occupancy        1800961740                       # Layer occupancy (ticks) (Tick)
system.tol2bus.respLayer1.utilization             0.0                       # Layer utilization (Ratio)
system.tol2bus.respLayer4.occupancy            436461                       # Layer occupancy (ticks) (Tick)
system.tol2bus.respLayer4.utilization             0.0                       # Layer utilization (Ratio)
system.tol2bus.respLayer5.occupancy        1144227700                       # Layer occupancy (ticks) (Tick)
system.tol2bus.respLayer5.utilization             0.0                       # Layer utilization (Ratio)
system.tol2bus.snoop_filter.totRequests       3929677                       # Total number of requests made to the snoop filter. (Count)
system.tol2bus.snoop_filter.hitSingleRequests      1964527                       # Number of requests hitting in the snoop filter with a single holder of the requested data. (Count)
system.tol2bus.snoop_filter.hitMultiRequests         3666                       # Number of requests hitting in the snoop filter with multiple (>1) holders of the requested data. (Count)
system.tol2bus.snoop_filter.totSnoops          500004                       # Total number of snoops made to the snoop filter. (Count)
system.tol2bus.snoop_filter.hitSingleSnoops       499759                       # Number of snoops hitting in the snoop filter with a single holder of the requested data. (Count)
system.tol2bus.snoop_filter.hitMultiSnoops          245                       # Number of snoops hitting in the snoop filter with multiple (>1) holders of the requested data. (Count)
system.voltage_domain.voltage                       1                       # Voltage in Volts (Volt)
system.workload.inst.arm                            0                       # number of arm instructions executed (Count)
system.workload.inst.quiesce                        0                       # number of quiesce instructions executed (Count)

---------- End Simulation Statistics   ----------
