
---------- Begin Simulation Statistics ----------
simSeconds                                   1.289372                       # Number of seconds simulated (Second)
simTicks                                 1289371503000                       # Number of ticks simulated (Tick)
finalTick                                1289371503000                       # Number of ticks from beginning of simulation (restored from checkpoints and never reset) (Tick)
simFreq                                  1000000000000                       # The number of ticks per simulated second ((Tick/Second))
hostSeconds                                   6986.13                       # Real time elapsed on the host (Second)
hostTickRate                                184561547                       # The number of ticks simulated per host second (ticks/s) ((Tick/Second))
hostMemory                                     758124                       # Number of bytes of host memory used (Byte)
simInsts                                   2547961936                       # Number of instructions simulated (Count)
simOps                                     3997239842                       # Number of ops (including micro ops) simulated (Count)
hostInstRate                                   364717                       # Simulator instruction rate (inst/s) ((Count/Second))
hostOpRate                                     572168                       # Simulator op (including micro ops) rate (op/s) ((Count/Second))
system.clk_domain.clock                          1000                       # Clock period in ticks (Tick)
system.cpu0.numCycles                      2582743298                       # Number of cpu cycles simulated (Cycle)
system.cpu0.cpi                              2.095238                       # CPI: cycles per instruction (core level) ((Cycle/Count))
system.cpu0.ipc                              0.477273                       # IPC: instructions per cycle (core level) ((Count/Cycle))
system.cpu0.numWorkItemsStarted                     0                       # Number of work items this cpu started (Count)
system.cpu0.numWorkItemsCompleted                   0                       # Number of work items this cpu completed (Count)
system.cpu0.commitStats0.numInsts          1232673231                       # Number of instructions committed (thread level) (Count)
system.cpu0.commitStats0.numOps            1956275779                       # Number of ops (including micro ops) committed (thread level) (Count)
system.cpu0.commitStats0.numInstsNotNOP             0                       # Number of instructions committed excluding NOPs or prefetches (Count)
system.cpu0.commitStats0.numOpsNotNOP               0                       # Number of Ops (including micro ops) Simulated (Count)
system.cpu0.commitStats0.cpi                 2.095238                       # CPI: cycles per instruction (thread level) ((Cycle/Count))
system.cpu0.commitStats0.ipc                 0.477273                       # IPC: instructions per cycle (thread level) ((Count/Cycle))
system.cpu0.commitStats0.numMemRefs                 0                       # Number of memory references committed (Count)
system.cpu0.commitStats0.numFpInsts          13965871                       # Number of float instructions (Count)
system.cpu0.commitStats0.numIntInsts       1886216496                       # Number of integer instructions (Count)
system.cpu0.commitStats0.numLoadInsts       454241423                       # Number of load instructions (Count)
system.cpu0.commitStats0.numStoreInsts      278645125                       # Number of store instructions (Count)
system.cpu0.commitStats0.numVecInsts                0                       # Number of vector instructions (Count)
system.cpu0.commitStats0.committedInstType::No_OpClass     57253326      2.93%      2.93% # Class of committed instruction. (Count)
system.cpu0.commitStats0.committedInstType::IntAlu   1160130431     59.30%     62.23% # Class of committed instruction. (Count)
system.cpu0.commitStats0.committedInstType::IntMult      2000151      0.10%     62.33% # Class of committed instruction. (Count)
system.cpu0.commitStats0.committedInstType::IntDiv           49      0.00%     62.33% # Class of committed instruction. (Count)
system.cpu0.commitStats0.committedInstType::FloatAdd      2001639      0.10%     62.43% # Class of committed instruction. (Count)
system.cpu0.commitStats0.committedInstType::FloatCmp            0      0.00%     62.43% # Class of committed instruction. (Count)
system.cpu0.commitStats0.committedInstType::FloatCvt            0      0.00%     62.43% # Class of committed instruction. (Count)
system.cpu0.commitStats0.committedInstType::FloatMult            0      0.00%     62.43% # Class of committed instruction. (Count)
system.cpu0.commitStats0.committedInstType::FloatMultAcc            0      0.00%     62.43% # Class of committed instruction. (Count)
system.cpu0.commitStats0.committedInstType::FloatDiv            0      0.00%     62.43% # Class of committed instruction. (Count)
system.cpu0.commitStats0.committedInstType::FloatMisc            0      0.00%     62.43% # Class of committed instruction. (Count)
system.cpu0.commitStats0.committedInstType::FloatSqrt            0      0.00%     62.43% # Class of committed instruction. (Count)
system.cpu0.commitStats0.committedInstType::SimdAdd           26      0.00%     62.43% # Class of committed instruction. (Count)
system.cpu0.commitStats0.committedInstType::SimdAddAcc            0      0.00%     62.43% # Class of committed instruction. (Count)
system.cpu0.commitStats0.committedInstType::SimdAlu          968      0.00%     62.43% # Class of committed instruction. (Count)
system.cpu0.commitStats0.committedInstType::SimdCmp            6      0.00%     62.43% # Class of committed instruction. (Count)
system.cpu0.commitStats0.committedInstType::SimdCvt          428      0.00%     62.43% # Class of committed instruction. (Count)
system.cpu0.commitStats0.committedInstType::SimdMisc      2002196      0.10%     62.54% # Class of committed instruction. (Count)
system.cpu0.commitStats0.committedInstType::SimdMult            0      0.00%     62.54% # Class of committed instruction. (Count)
system.cpu0.commitStats0.committedInstType::SimdMultAcc            0      0.00%     62.54% # Class of committed instruction. (Count)
system.cpu0.commitStats0.committedInstType::SimdMatMultAcc            0      0.00%     62.54% # Class of committed instruction. (Count)
system.cpu0.commitStats0.committedInstType::SimdShift            0      0.00%     62.54% # Class of committed instruction. (Count)
system.cpu0.commitStats0.committedInstType::SimdShiftAcc            0      0.00%     62.54% # Class of committed instruction. (Count)
system.cpu0.commitStats0.committedInstType::SimdDiv            0      0.00%     62.54% # Class of committed instruction. (Count)
system.cpu0.commitStats0.committedInstType::SimdSqrt            0      0.00%     62.54% # Class of committed instruction. (Count)
system.cpu0.commitStats0.committedInstType::SimdFloatAdd            3      0.00%     62.54% # Class of committed instruction. (Count)
system.cpu0.commitStats0.committedInstType::SimdFloatAlu            0      0.00%     62.54% # Class of committed instruction. (Count)
system.cpu0.commitStats0.committedInstType::SimdFloatCmp            0      0.00%     62.54% # Class of committed instruction. (Count)
system.cpu0.commitStats0.committedInstType::SimdFloatCvt            6      0.00%     62.54% # Class of committed instruction. (Count)
system.cpu0.commitStats0.committedInstType::SimdFloatDiv            2      0.00%     62.54% # Class of committed instruction. (Count)
system.cpu0.commitStats0.committedInstType::SimdFloatMisc            0      0.00%     62.54% # Class of committed instruction. (Count)
system.cpu0.commitStats0.committedInstType::SimdFloatMult            0      0.00%     62.54% # Class of committed instruction. (Count)
system.cpu0.commitStats0.committedInstType::SimdFloatMultAcc            0      0.00%     62.54% # Class of committed instruction. (Count)
system.cpu0.commitStats0.committedInstType::SimdFloatMatMultAcc            0      0.00%     62.54% # Class of committed instruction. (Count)
system.cpu0.commitStats0.committedInstType::SimdFloatSqrt            0      0.00%     62.54% # Class of committed instruction. (Count)
system.cpu0.commitStats0.committedInstType::SimdReduceAdd            0      0.00%     62.54% # Class of committed instruction. (Count)
system.cpu0.commitStats0.committedInstType::SimdReduceAlu            0      0.00%     62.54% # Class of committed instruction. (Count)
system.cpu0.commitStats0.committedInstType::SimdReduceCmp            0      0.00%     62.54% # Class of committed instruction. (Count)
system.cpu0.commitStats0.committedInstType::SimdFloatReduceAdd            0      0.00%     62.54% # Class of committed instruction. (Count)
system.cpu0.commitStats0.committedInstType::SimdFloatReduceCmp            0      0.00%     62.54% # Class of committed instruction. (Count)
system.cpu0.commitStats0.committedInstType::SimdAes            0      0.00%     62.54% # Class of committed instruction. (Count)
system.cpu0.commitStats0.committedInstType::SimdAesMix            0      0.00%     62.54% # Class of committed instruction. (Count)
system.cpu0.commitStats0.committedInstType::SimdSha1Hash            0      0.00%     62.54% # Class of committed instruction. (Count)
system.cpu0.commitStats0.committedInstType::SimdSha1Hash2            0      0.00%     62.54% # Class of committed instruction. (Count)
system.cpu0.commitStats0.committedInstType::SimdSha256Hash            0      0.00%     62.54% # Class of committed instruction. (Count)
system.cpu0.commitStats0.committedInstType::SimdSha256Hash2            0      0.00%     62.54% # Class of committed instruction. (Count)
system.cpu0.commitStats0.committedInstType::SimdShaSigma2            0      0.00%     62.54% # Class of committed instruction. (Count)
system.cpu0.commitStats0.committedInstType::SimdShaSigma3            0      0.00%     62.54% # Class of committed instruction. (Count)
system.cpu0.commitStats0.committedInstType::SimdPredAlu            0      0.00%     62.54% # Class of committed instruction. (Count)
system.cpu0.commitStats0.committedInstType::Matrix            0      0.00%     62.54% # Class of committed instruction. (Count)
system.cpu0.commitStats0.committedInstType::MatrixMov            0      0.00%     62.54% # Class of committed instruction. (Count)
system.cpu0.commitStats0.committedInstType::MatrixOP            0      0.00%     62.54% # Class of committed instruction. (Count)
system.cpu0.commitStats0.committedInstType::MemRead    450762070     23.04%     85.58% # Class of committed instruction. (Count)
system.cpu0.commitStats0.committedInstType::MemWrite    273164859     13.96%     99.54% # Class of committed instruction. (Count)
system.cpu0.commitStats0.committedInstType::FloatMemRead      3479353      0.18%     99.72% # Class of committed instruction. (Count)
system.cpu0.commitStats0.committedInstType::FloatMemWrite      5480266      0.28%    100.00% # Class of committed instruction. (Count)
system.cpu0.commitStats0.committedInstType::IprAccess            0      0.00%    100.00% # Class of committed instruction. (Count)
system.cpu0.commitStats0.committedInstType::InstPrefetch            0      0.00%    100.00% # Class of committed instruction. (Count)
system.cpu0.commitStats0.committedInstType::SimdUnitStrideLoad            0      0.00%    100.00% # Class of committed instruction. (Count)
system.cpu0.commitStats0.committedInstType::SimdUnitStrideStore            0      0.00%    100.00% # Class of committed instruction. (Count)
system.cpu0.commitStats0.committedInstType::SimdUnitStrideMaskLoad            0      0.00%    100.00% # Class of committed instruction. (Count)
system.cpu0.commitStats0.committedInstType::SimdUnitStrideMaskStore            0      0.00%    100.00% # Class of committed instruction. (Count)
system.cpu0.commitStats0.committedInstType::SimdStridedLoad            0      0.00%    100.00% # Class of committed instruction. (Count)
system.cpu0.commitStats0.committedInstType::SimdStridedStore            0      0.00%    100.00% # Class of committed instruction. (Count)
system.cpu0.commitStats0.committedInstType::SimdIndexedLoad            0      0.00%    100.00% # Class of committed instruction. (Count)
system.cpu0.commitStats0.committedInstType::SimdIndexedStore            0      0.00%    100.00% # Class of committed instruction. (Count)
system.cpu0.commitStats0.committedInstType::SimdWholeRegisterLoad            0      0.00%    100.00% # Class of committed instruction. (Count)
system.cpu0.commitStats0.committedInstType::SimdWholeRegisterStore            0      0.00%    100.00% # Class of committed instruction. (Count)
system.cpu0.commitStats0.committedInstType::SimdUnitStrideFaultOnlyFirstLoad            0      0.00%    100.00% # Class of committed instruction. (Count)
system.cpu0.commitStats0.committedInstType::SimdUnitStrideSegmentedLoad            0      0.00%    100.00% # Class of committed instruction. (Count)
system.cpu0.commitStats0.committedInstType::SimdUnitStrideSegmentedStore            0      0.00%    100.00% # Class of committed instruction. (Count)
system.cpu0.commitStats0.committedInstType::SimdUnitStrideSegmentedFaultOnlyFirstLoad            0      0.00%    100.00% # Class of committed instruction. (Count)
system.cpu0.commitStats0.committedInstType::SimdStrideSegmentedLoad            0      0.00%    100.00% # Class of committed instruction. (Count)
system.cpu0.commitStats0.committedInstType::SimdStrideSegmentedStore            0      0.00%    100.00% # Class of committed instruction. (Count)
system.cpu0.commitStats0.committedInstType::SimdExt            0      0.00%    100.00% # Class of committed instruction. (Count)
system.cpu0.commitStats0.committedInstType::SimdFloatExt            0      0.00%    100.00% # Class of committed instruction. (Count)
system.cpu0.commitStats0.committedInstType::SimdConfig            0      0.00%    100.00% # Class of committed instruction. (Count)
system.cpu0.commitStats0.committedInstType::total   1956275779                       # Class of committed instruction. (Count)
system.cpu0.commitStats0.committedControl::IsControl    167974116                       # Class of control type instructions committed (Count)
system.cpu0.commitStats0.committedControl::IsDirectControl    110345685                       # Class of control type instructions committed (Count)
system.cpu0.commitStats0.committedControl::IsIndirectControl     57628431                       # Class of control type instructions committed (Count)
system.cpu0.commitStats0.committedControl::IsCondControl     47295148                       # Class of control type instructions committed (Count)
system.cpu0.commitStats0.committedControl::IsUncondControl    120678968                       # Class of control type instructions committed (Count)
system.cpu0.commitStats0.committedControl::IsCall     56627907                       # Class of control type instructions committed (Count)
system.cpu0.commitStats0.committedControl::IsReturn     56627902                       # Class of control type instructions committed (Count)
system.cpu0.dcache.demandHits::cpu0.data    728045351                       # number of demand (read+write) hits (Count)
system.cpu0.dcache.demandHits::total        728045351                       # number of demand (read+write) hits (Count)
system.cpu0.dcache.overallHits::cpu0.data    728073658                       # number of overall hits (Count)
system.cpu0.dcache.overallHits::total       728073658                       # number of overall hits (Count)
system.cpu0.dcache.demandMisses::cpu0.data       729015                       # number of demand (read+write) misses (Count)
system.cpu0.dcache.demandMisses::total         729015                       # number of demand (read+write) misses (Count)
system.cpu0.dcache.overallMisses::cpu0.data       825668                       # number of overall misses (Count)
system.cpu0.dcache.overallMisses::total        825668                       # number of overall misses (Count)
system.cpu0.dcache.demandAccesses::cpu0.data    728774366                       # number of demand (read+write) accesses (Count)
system.cpu0.dcache.demandAccesses::total    728774366                       # number of demand (read+write) accesses (Count)
system.cpu0.dcache.overallAccesses::cpu0.data    728899326                       # number of overall (read+write) accesses (Count)
system.cpu0.dcache.overallAccesses::total    728899326                       # number of overall (read+write) accesses (Count)
system.cpu0.dcache.demandMissRate::cpu0.data     0.001000                       # miss rate for demand accesses (Ratio)
system.cpu0.dcache.demandMissRate::total     0.001000                       # miss rate for demand accesses (Ratio)
system.cpu0.dcache.overallMissRate::cpu0.data     0.001133                       # miss rate for overall accesses (Ratio)
system.cpu0.dcache.overallMissRate::total     0.001133                       # miss rate for overall accesses (Ratio)
system.cpu0.dcache.blockedCycles::no_mshrs            0                       # number of cycles access was blocked (Cycle)
system.cpu0.dcache.blockedCycles::no_targets            0                       # number of cycles access was blocked (Cycle)
system.cpu0.dcache.blockedCauses::no_mshrs            0                       # number of times access was blocked (Count)
system.cpu0.dcache.blockedCauses::no_targets            0                       # number of times access was blocked (Count)
system.cpu0.dcache.avgBlocked::no_mshrs           nan                       # average number of cycles each access was blocked ((Cycle/Count))
system.cpu0.dcache.avgBlocked::no_targets          nan                       # average number of cycles each access was blocked ((Cycle/Count))
system.cpu0.dcache.writebacks::writebacks       635028                       # number of writebacks (Count)
system.cpu0.dcache.writebacks::total           635028                       # number of writebacks (Count)
system.cpu0.dcache.replacements                823949                       # number of replacements (Count)
system.cpu0.dcache.LockedRMWReadReq.hits::cpu0.data      2000117                       # number of LockedRMWReadReq hits (Count)
system.cpu0.dcache.LockedRMWReadReq.hits::total      2000117                       # number of LockedRMWReadReq hits (Count)
system.cpu0.dcache.LockedRMWReadReq.misses::cpu0.data           21                       # number of LockedRMWReadReq misses (Count)
system.cpu0.dcache.LockedRMWReadReq.misses::total           21                       # number of LockedRMWReadReq misses (Count)
system.cpu0.dcache.LockedRMWReadReq.accesses::cpu0.data      2000138                       # number of LockedRMWReadReq accesses(hits+misses) (Count)
system.cpu0.dcache.LockedRMWReadReq.accesses::total      2000138                       # number of LockedRMWReadReq accesses(hits+misses) (Count)
system.cpu0.dcache.LockedRMWReadReq.missRate::cpu0.data     0.000010                       # miss rate for LockedRMWReadReq accesses (Ratio)
system.cpu0.dcache.LockedRMWReadReq.missRate::total     0.000010                       # miss rate for LockedRMWReadReq accesses (Ratio)
system.cpu0.dcache.LockedRMWWriteReq.hits::cpu0.data      2000138                       # number of LockedRMWWriteReq hits (Count)
system.cpu0.dcache.LockedRMWWriteReq.hits::total      2000138                       # number of LockedRMWWriteReq hits (Count)
system.cpu0.dcache.LockedRMWWriteReq.accesses::cpu0.data      2000138                       # number of LockedRMWWriteReq accesses(hits+misses) (Count)
system.cpu0.dcache.LockedRMWWriteReq.accesses::total      2000138                       # number of LockedRMWWriteReq accesses(hits+misses) (Count)
system.cpu0.dcache.ReadReq.hits::cpu0.data    451965596                       # number of ReadReq hits (Count)
system.cpu0.dcache.ReadReq.hits::total      451965596                       # number of ReadReq hits (Count)
system.cpu0.dcache.ReadReq.misses::cpu0.data       220744                       # number of ReadReq misses (Count)
system.cpu0.dcache.ReadReq.misses::total       220744                       # number of ReadReq misses (Count)
system.cpu0.dcache.ReadReq.accesses::cpu0.data    452186340                       # number of ReadReq accesses(hits+misses) (Count)
system.cpu0.dcache.ReadReq.accesses::total    452186340                       # number of ReadReq accesses(hits+misses) (Count)
system.cpu0.dcache.ReadReq.missRate::cpu0.data     0.000488                       # miss rate for ReadReq accesses (Ratio)
system.cpu0.dcache.ReadReq.missRate::total     0.000488                       # miss rate for ReadReq accesses (Ratio)
system.cpu0.dcache.SoftPFReq.hits::cpu0.data        28307                       # number of SoftPFReq hits (Count)
system.cpu0.dcache.SoftPFReq.hits::total        28307                       # number of SoftPFReq hits (Count)
system.cpu0.dcache.SoftPFReq.misses::cpu0.data        96653                       # number of SoftPFReq misses (Count)
system.cpu0.dcache.SoftPFReq.misses::total        96653                       # number of SoftPFReq misses (Count)
system.cpu0.dcache.SoftPFReq.accesses::cpu0.data       124960                       # number of SoftPFReq accesses(hits+misses) (Count)
system.cpu0.dcache.SoftPFReq.accesses::total       124960                       # number of SoftPFReq accesses(hits+misses) (Count)
system.cpu0.dcache.SoftPFReq.missRate::cpu0.data     0.773472                       # miss rate for SoftPFReq accesses (Ratio)
system.cpu0.dcache.SoftPFReq.missRate::total     0.773472                       # miss rate for SoftPFReq accesses (Ratio)
system.cpu0.dcache.WriteReq.hits::cpu0.data    276079755                       # number of WriteReq hits (Count)
system.cpu0.dcache.WriteReq.hits::total     276079755                       # number of WriteReq hits (Count)
system.cpu0.dcache.WriteReq.misses::cpu0.data       508271                       # number of WriteReq misses (Count)
system.cpu0.dcache.WriteReq.misses::total       508271                       # number of WriteReq misses (Count)
system.cpu0.dcache.WriteReq.accesses::cpu0.data    276588026                       # number of WriteReq accesses(hits+misses) (Count)
system.cpu0.dcache.WriteReq.accesses::total    276588026                       # number of WriteReq accesses(hits+misses) (Count)
system.cpu0.dcache.WriteReq.missRate::cpu0.data     0.001838                       # miss rate for WriteReq accesses (Ratio)
system.cpu0.dcache.WriteReq.missRate::total     0.001838                       # miss rate for WriteReq accesses (Ratio)
system.cpu0.dcache.power_state.pwrStateResidencyTicks::UNDEFINED 1289371503000                       # Cumulative time (in ticks) in various power states (Tick)
system.cpu0.dcache.tags.tagsInUse          941.717642                       # Average ticks per tags in use ((Tick/Count))
system.cpu0.dcache.tags.totalRefs           732899602                       # Total number of references to valid blocks. (Count)
system.cpu0.dcache.tags.sampledRefs            825664                       # Sample count of references to valid blocks. (Count)
system.cpu0.dcache.tags.avgRefs            887.648731                       # Average number of references to valid blocks. ((Count/Count))
system.cpu0.dcache.tags.warmupTick               2000                       # The tick when the warmup percentage was hit. (Tick)
system.cpu0.dcache.tags.occupancies::cpu0.data   941.717642                       # Average occupied blocks per tick, per requestor ((Count/Tick))
system.cpu0.dcache.tags.avgOccs::cpu0.data     0.919646                       # Average percentage of cache occupancy ((Ratio/Tick))
system.cpu0.dcache.tags.avgOccs::total       0.919646                       # Average percentage of cache occupancy ((Ratio/Tick))
system.cpu0.dcache.tags.occupanciesTaskId::1024          179                       # Occupied blocks per task id (Count)
system.cpu0.dcache.tags.ageTaskId_1024::0          150                       # Occupied blocks per task id, per block age (Count)
system.cpu0.dcache.tags.ageTaskId_1024::4           29                       # Occupied blocks per task id, per block age (Count)
system.cpu0.dcache.tags.ratioOccsTaskId::1024     0.174805                       # Ratio of occupied blocks and all blocks, per task id (Ratio)
system.cpu0.dcache.tags.tagAccesses        1466624868                       # Number of tag accesses (Count)
system.cpu0.dcache.tags.dataAccesses       1466624868                       # Number of data accesses (Count)
system.cpu0.dcache.tags.power_state.pwrStateResidencyTicks::UNDEFINED 1289371503000                       # Cumulative time (in ticks) in various power states (Tick)
system.cpu0.dtb_walker_cache.blockedCycles::no_mshrs            0                       # number of cycles access was blocked (Cycle)
system.cpu0.dtb_walker_cache.blockedCycles::no_targets            0                       # number of cycles access was blocked (Cycle)
system.cpu0.dtb_walker_cache.blockedCauses::no_mshrs            0                       # number of times access was blocked (Count)
system.cpu0.dtb_walker_cache.blockedCauses::no_targets            0                       # number of times access was blocked (Count)
system.cpu0.dtb_walker_cache.avgBlocked::no_mshrs          nan                       # average number of cycles each access was blocked ((Cycle/Count))
system.cpu0.dtb_walker_cache.avgBlocked::no_targets          nan                       # average number of cycles each access was blocked ((Cycle/Count))
system.cpu0.dtb_walker_cache.replacements            0                       # number of replacements (Count)
system.cpu0.dtb_walker_cache.power_state.pwrStateResidencyTicks::UNDEFINED 1289371503000                       # Cumulative time (in ticks) in various power states (Tick)
system.cpu0.dtb_walker_cache.tags.tagsInUse            0                       # Average ticks per tags in use ((Tick/Count))
system.cpu0.dtb_walker_cache.tags.totalRefs            0                       # Total number of references to valid blocks. (Count)
system.cpu0.dtb_walker_cache.tags.sampledRefs            0                       # Sample count of references to valid blocks. (Count)
system.cpu0.dtb_walker_cache.tags.avgRefs          nan                       # Average number of references to valid blocks. ((Count/Count))
system.cpu0.dtb_walker_cache.tags.warmupTick            0                       # The tick when the warmup percentage was hit. (Tick)
system.cpu0.dtb_walker_cache.tags.tagAccesses            0                       # Number of tag accesses (Count)
system.cpu0.dtb_walker_cache.tags.dataAccesses            0                       # Number of data accesses (Count)
system.cpu0.dtb_walker_cache.tags.power_state.pwrStateResidencyTicks::UNDEFINED 1289371503000                       # Cumulative time (in ticks) in various power states (Tick)
system.cpu0.exec_context.thread_0.numMatAluAccesses            0                       # Number of matrix alu accesses (Count)
system.cpu0.exec_context.thread_0.numCallsReturns    113255809                       # Number of times a function call or return occured (Count)
system.cpu0.exec_context.thread_0.numMatInsts            0                       # Number of matrix instructions (Count)
system.cpu0.exec_context.thread_0.numIdleCycles 245716457.893076                       # Number of idle cycles (Cycle)
system.cpu0.exec_context.thread_0.numBusyCycles 2337026840.106924                       # Number of busy cycles (Cycle)
system.cpu0.exec_context.thread_0.notIdleFraction     0.904862                       # Percentage of non-idle cycles (Ratio)
system.cpu0.exec_context.thread_0.idleFraction     0.095138                       # Percentage of idle cycles (Ratio)
system.cpu0.executeStats0.numInsts                  0                       # Number of executed instructions (Count)
system.cpu0.executeStats0.numNop                    0                       # Number of nop insts executed (Count)
system.cpu0.executeStats0.numBranches               0                       # Number of branches executed (Count)
system.cpu0.executeStats0.numLoadInsts              0                       # Number of load instructions executed (Count)
system.cpu0.executeStats0.numStoreInsts     732886548                       # Number of stores executed (Count)
system.cpu0.executeStats0.instRate                  0                       # Inst execution rate ((Count/Cycle))
system.cpu0.executeStats0.numFpAluAccesses     13965871                       # Number of float alu accesses (Count)
system.cpu0.executeStats0.numFpRegReads       9488101                       # Number of times the floating registers were read (Count)
system.cpu0.executeStats0.numFpRegWrites      8485205                       # Number of times the floating registers were written (Count)
system.cpu0.executeStats0.numIntAluAccesses   1886216496                       # Number of integer alu accesses (Count)
system.cpu0.executeStats0.numIntRegReads   2250494971                       # Number of times the integer registers were read (Count)
system.cpu0.executeStats0.numIntRegWrites   1384582973                       # Number of times the integer registers were written (Count)
system.cpu0.executeStats0.numMemRefs        732886548                       # Number of memory refs (Count)
system.cpu0.executeStats0.numMiscRegReads   1015257387                       # Number of times the Misc registers were read (Count)
system.cpu0.executeStats0.numVecAluAccesses            0                       # Number of vector alu accesses (Count)
system.cpu0.executeStats0.numDiscardedOps            0                       # Number of ops (including micro ops) which were discarded before commit (Count)
system.cpu0.fetchStats0.numInsts           1232673231                       # Number of instructions fetched (thread level) (Count)
system.cpu0.fetchStats0.numOps             1956275779                       # Number of ops (including micro ops) fetched (thread level) (Count)
system.cpu0.fetchStats0.fetchRate            0.477273                       # Number of inst fetches per cycle ((Count/Cycle))
system.cpu0.fetchStats0.numBranches         167974116                       # Number of branches fetched (Count)
system.cpu0.fetchStats0.branchRate           0.065037                       # Number of branch fetches per cycle (Ratio)
system.cpu0.fetchStats0.numFetchSuspends            0                       # Number of times Execute suspended instruction fetching (Count)
system.cpu0.icache.demandHits::cpu0.inst   1613927936                       # number of demand (read+write) hits (Count)
system.cpu0.icache.demandHits::total       1613927936                       # number of demand (read+write) hits (Count)
system.cpu0.icache.overallHits::cpu0.inst   1613927936                       # number of overall hits (Count)
system.cpu0.icache.overallHits::total      1613927936                       # number of overall hits (Count)
system.cpu0.icache.demandMisses::cpu0.inst         1929                       # number of demand (read+write) misses (Count)
system.cpu0.icache.demandMisses::total           1929                       # number of demand (read+write) misses (Count)
system.cpu0.icache.overallMisses::cpu0.inst         1929                       # number of overall misses (Count)
system.cpu0.icache.overallMisses::total          1929                       # number of overall misses (Count)
system.cpu0.icache.demandAccesses::cpu0.inst   1613929865                       # number of demand (read+write) accesses (Count)
system.cpu0.icache.demandAccesses::total   1613929865                       # number of demand (read+write) accesses (Count)
system.cpu0.icache.overallAccesses::cpu0.inst   1613929865                       # number of overall (read+write) accesses (Count)
system.cpu0.icache.overallAccesses::total   1613929865                       # number of overall (read+write) accesses (Count)
system.cpu0.icache.demandMissRate::cpu0.inst     0.000001                       # miss rate for demand accesses (Ratio)
system.cpu0.icache.demandMissRate::total     0.000001                       # miss rate for demand accesses (Ratio)
system.cpu0.icache.overallMissRate::cpu0.inst     0.000001                       # miss rate for overall accesses (Ratio)
system.cpu0.icache.overallMissRate::total     0.000001                       # miss rate for overall accesses (Ratio)
system.cpu0.icache.blockedCycles::no_mshrs            0                       # number of cycles access was blocked (Cycle)
system.cpu0.icache.blockedCycles::no_targets            0                       # number of cycles access was blocked (Cycle)
system.cpu0.icache.blockedCauses::no_mshrs            0                       # number of times access was blocked (Count)
system.cpu0.icache.blockedCauses::no_targets            0                       # number of times access was blocked (Count)
system.cpu0.icache.avgBlocked::no_mshrs           nan                       # average number of cycles each access was blocked ((Cycle/Count))
system.cpu0.icache.avgBlocked::no_targets          nan                       # average number of cycles each access was blocked ((Cycle/Count))
system.cpu0.icache.writebacks::writebacks         1673                       # number of writebacks (Count)
system.cpu0.icache.writebacks::total             1673                       # number of writebacks (Count)
system.cpu0.icache.replacements                  1673                       # number of replacements (Count)
system.cpu0.icache.ReadReq.hits::cpu0.inst   1613927936                       # number of ReadReq hits (Count)
system.cpu0.icache.ReadReq.hits::total     1613927936                       # number of ReadReq hits (Count)
system.cpu0.icache.ReadReq.misses::cpu0.inst         1929                       # number of ReadReq misses (Count)
system.cpu0.icache.ReadReq.misses::total         1929                       # number of ReadReq misses (Count)
system.cpu0.icache.ReadReq.accesses::cpu0.inst   1613929865                       # number of ReadReq accesses(hits+misses) (Count)
system.cpu0.icache.ReadReq.accesses::total   1613929865                       # number of ReadReq accesses(hits+misses) (Count)
system.cpu0.icache.ReadReq.missRate::cpu0.inst     0.000001                       # miss rate for ReadReq accesses (Ratio)
system.cpu0.icache.ReadReq.missRate::total     0.000001                       # miss rate for ReadReq accesses (Ratio)
system.cpu0.icache.power_state.pwrStateResidencyTicks::UNDEFINED 1289371503000                       # Cumulative time (in ticks) in various power states (Tick)
system.cpu0.icache.tags.tagsInUse          255.999145                       # Average ticks per tags in use ((Tick/Count))
system.cpu0.icache.tags.totalRefs          1613929865                       # Total number of references to valid blocks. (Count)
system.cpu0.icache.tags.sampledRefs              1929                       # Sample count of references to valid blocks. (Count)
system.cpu0.icache.tags.avgRefs          836666.596682                       # Average number of references to valid blocks. ((Count/Count))
system.cpu0.icache.tags.warmupTick                  0                       # The tick when the warmup percentage was hit. (Tick)
system.cpu0.icache.tags.occupancies::cpu0.inst   255.999145                       # Average occupied blocks per tick, per requestor ((Count/Tick))
system.cpu0.icache.tags.avgOccs::cpu0.inst     0.999997                       # Average percentage of cache occupancy ((Ratio/Tick))
system.cpu0.icache.tags.avgOccs::total       0.999997                       # Average percentage of cache occupancy ((Ratio/Tick))
system.cpu0.icache.tags.occupanciesTaskId::1024          256                       # Occupied blocks per task id (Count)
system.cpu0.icache.tags.ageTaskId_1024::0          230                       # Occupied blocks per task id, per block age (Count)
system.cpu0.icache.tags.ageTaskId_1024::4           26                       # Occupied blocks per task id, per block age (Count)
system.cpu0.icache.tags.ratioOccsTaskId::1024            1                       # Ratio of occupied blocks and all blocks, per task id (Ratio)
system.cpu0.icache.tags.tagAccesses        3227861659                       # Number of tag accesses (Count)
system.cpu0.icache.tags.dataAccesses       3227861659                       # Number of data accesses (Count)
system.cpu0.icache.tags.power_state.pwrStateResidencyTicks::UNDEFINED 1289371503000                       # Cumulative time (in ticks) in various power states (Tick)
system.cpu0.interrupts.clk_domain.clock          8000                       # Clock period in ticks (Tick)
system.cpu0.itb_walker_cache.blockedCycles::no_mshrs            0                       # number of cycles access was blocked (Cycle)
system.cpu0.itb_walker_cache.blockedCycles::no_targets            0                       # number of cycles access was blocked (Cycle)
system.cpu0.itb_walker_cache.blockedCauses::no_mshrs            0                       # number of times access was blocked (Count)
system.cpu0.itb_walker_cache.blockedCauses::no_targets            0                       # number of times access was blocked (Count)
system.cpu0.itb_walker_cache.avgBlocked::no_mshrs          nan                       # average number of cycles each access was blocked ((Cycle/Count))
system.cpu0.itb_walker_cache.avgBlocked::no_targets          nan                       # average number of cycles each access was blocked ((Cycle/Count))
system.cpu0.itb_walker_cache.replacements            0                       # number of replacements (Count)
system.cpu0.itb_walker_cache.power_state.pwrStateResidencyTicks::UNDEFINED 1289371503000                       # Cumulative time (in ticks) in various power states (Tick)
system.cpu0.itb_walker_cache.tags.tagsInUse            0                       # Average ticks per tags in use ((Tick/Count))
system.cpu0.itb_walker_cache.tags.totalRefs            0                       # Total number of references to valid blocks. (Count)
system.cpu0.itb_walker_cache.tags.sampledRefs            0                       # Sample count of references to valid blocks. (Count)
system.cpu0.itb_walker_cache.tags.avgRefs          nan                       # Average number of references to valid blocks. ((Count/Count))
system.cpu0.itb_walker_cache.tags.warmupTick            0                       # The tick when the warmup percentage was hit. (Tick)
system.cpu0.itb_walker_cache.tags.tagAccesses            0                       # Number of tag accesses (Count)
system.cpu0.itb_walker_cache.tags.dataAccesses            0                       # Number of data accesses (Count)
system.cpu0.itb_walker_cache.tags.power_state.pwrStateResidencyTicks::UNDEFINED 1289371503000                       # Cumulative time (in ticks) in various power states (Tick)
system.cpu0.mmu.dtb.rdAccesses              454311439                       # TLB accesses on read requests (Count)
system.cpu0.mmu.dtb.wrAccesses              278715117                       # TLB accesses on write requests (Count)
system.cpu0.mmu.dtb.rdMisses                     3328                       # TLB misses on read requests (Count)
system.cpu0.mmu.dtb.wrMisses                     8232                       # TLB misses on write requests (Count)
system.cpu0.mmu.dtb.walker.power_state.pwrStateResidencyTicks::UNDEFINED 1289371503000                       # Cumulative time (in ticks) in various power states (Tick)
system.cpu0.mmu.itb.rdAccesses                      0                       # TLB accesses on read requests (Count)
system.cpu0.mmu.itb.wrAccesses             1613929865                       # TLB accesses on write requests (Count)
system.cpu0.mmu.itb.rdMisses                        0                       # TLB misses on read requests (Count)
system.cpu0.mmu.itb.wrMisses                      240                       # TLB misses on write requests (Count)
system.cpu0.mmu.itb.walker.power_state.pwrStateResidencyTicks::UNDEFINED 1289371503000                       # Cumulative time (in ticks) in various power states (Tick)
system.cpu0.power_state.numTransitions              2                       # Number of power state transitions (Count)
system.cpu0.power_state.ticksClkGated::samples            1                       # Distribution of time spent in the clock gated state (Tick)
system.cpu0.power_state.ticksClkGated::mean 122667939500                       # Distribution of time spent in the clock gated state (Tick)
system.cpu0.power_state.ticksClkGated::1e+11-1.5e+11            1    100.00%    100.00% # Distribution of time spent in the clock gated state (Tick)
system.cpu0.power_state.ticksClkGated::min_value 122667939500                       # Distribution of time spent in the clock gated state (Tick)
system.cpu0.power_state.ticksClkGated::max_value 122667939500                       # Distribution of time spent in the clock gated state (Tick)
system.cpu0.power_state.ticksClkGated::total            1                       # Distribution of time spent in the clock gated state (Tick)
system.cpu0.power_state.pwrStateResidencyTicks::ON 1166703563500                       # Cumulative time (in ticks) in various power states (Tick)
system.cpu0.power_state.pwrStateResidencyTicks::CLK_GATED 122667939500                       # Cumulative time (in ticks) in various power states (Tick)
system.cpu0.thread_0.numInsts                       0                       # Number of Instructions committed (Count)
system.cpu0.thread_0.numOps                         0                       # Number of Ops committed (Count)
system.cpu0.thread_0.numMemRefs                     0                       # Number of Memory References (Count)
system.cpu0.workload.numSyscalls                   54                       # Number of system calls (Count)
system.cpu1.numCycles                      2578743101                       # Number of cpu cycles simulated (Cycle)
system.cpu1.cpi                             27.657456                       # CPI: cycles per instruction (core level) ((Cycle/Count))
system.cpu1.ipc                              0.036157                       # IPC: instructions per cycle (core level) ((Count/Cycle))
system.cpu1.numWorkItemsStarted                     0                       # Number of work items this cpu started (Count)
system.cpu1.numWorkItemsCompleted                   0                       # Number of work items this cpu completed (Count)
system.cpu1.commitStats0.numInsts            93238622                       # Number of instructions committed (thread level) (Count)
system.cpu1.commitStats0.numOps             141843247                       # Number of ops (including micro ops) committed (thread level) (Count)
system.cpu1.commitStats0.numInstsNotNOP             0                       # Number of instructions committed excluding NOPs or prefetches (Count)
system.cpu1.commitStats0.numOpsNotNOP               0                       # Number of Ops (including micro ops) Simulated (Count)
system.cpu1.commitStats0.cpi                27.657456                       # CPI: cycles per instruction (thread level) ((Cycle/Count))
system.cpu1.commitStats0.ipc                 0.036157                       # IPC: instructions per cycle (thread level) ((Count/Cycle))
system.cpu1.commitStats0.numMemRefs                 0                       # Number of memory references committed (Count)
system.cpu1.commitStats0.numFpInsts           1000847                       # Number of float instructions (Count)
system.cpu1.commitStats0.numIntInsts        137291344                       # Number of integer instructions (Count)
system.cpu1.commitStats0.numLoadInsts        35802366                       # Number of load instructions (Count)
system.cpu1.commitStats0.numStoreInsts       19751209                       # Number of store instructions (Count)
system.cpu1.commitStats0.numVecInsts                0                       # Number of vector instructions (Count)
system.cpu1.commitStats0.committedInstType::No_OpClass      4250144      3.00%      3.00% # Class of committed instruction. (Count)
system.cpu1.commitStats0.committedInstType::IntAlu     82039139     57.84%     60.83% # Class of committed instruction. (Count)
system.cpu1.commitStats0.committedInstType::IntMult            7      0.00%     60.83% # Class of committed instruction. (Count)
system.cpu1.commitStats0.committedInstType::IntDiv            0      0.00%     60.83% # Class of committed instruction. (Count)
system.cpu1.commitStats0.committedInstType::FloatAdd          140      0.00%     60.83% # Class of committed instruction. (Count)
system.cpu1.commitStats0.committedInstType::FloatCmp            0      0.00%     60.83% # Class of committed instruction. (Count)
system.cpu1.commitStats0.committedInstType::FloatCvt            0      0.00%     60.83% # Class of committed instruction. (Count)
system.cpu1.commitStats0.committedInstType::FloatMult            0      0.00%     60.83% # Class of committed instruction. (Count)
system.cpu1.commitStats0.committedInstType::FloatMultAcc            0      0.00%     60.83% # Class of committed instruction. (Count)
system.cpu1.commitStats0.committedInstType::FloatDiv            0      0.00%     60.83% # Class of committed instruction. (Count)
system.cpu1.commitStats0.committedInstType::FloatMisc            0      0.00%     60.83% # Class of committed instruction. (Count)
system.cpu1.commitStats0.committedInstType::FloatSqrt            0      0.00%     60.83% # Class of committed instruction. (Count)
system.cpu1.commitStats0.committedInstType::SimdAdd            0      0.00%     60.83% # Class of committed instruction. (Count)
system.cpu1.commitStats0.committedInstType::SimdAddAcc            0      0.00%     60.83% # Class of committed instruction. (Count)
system.cpu1.commitStats0.committedInstType::SimdAlu           32      0.00%     60.83% # Class of committed instruction. (Count)
system.cpu1.commitStats0.committedInstType::SimdCmp            0      0.00%     60.83% # Class of committed instruction. (Count)
system.cpu1.commitStats0.committedInstType::SimdCvt           18      0.00%     60.83% # Class of committed instruction. (Count)
system.cpu1.commitStats0.committedInstType::SimdMisc          161      0.00%     60.83% # Class of committed instruction. (Count)
system.cpu1.commitStats0.committedInstType::SimdMult            0      0.00%     60.83% # Class of committed instruction. (Count)
system.cpu1.commitStats0.committedInstType::SimdMultAcc            0      0.00%     60.83% # Class of committed instruction. (Count)
system.cpu1.commitStats0.committedInstType::SimdMatMultAcc            0      0.00%     60.83% # Class of committed instruction. (Count)
system.cpu1.commitStats0.committedInstType::SimdShift            0      0.00%     60.83% # Class of committed instruction. (Count)
system.cpu1.commitStats0.committedInstType::SimdShiftAcc            0      0.00%     60.83% # Class of committed instruction. (Count)
system.cpu1.commitStats0.committedInstType::SimdDiv            0      0.00%     60.83% # Class of committed instruction. (Count)
system.cpu1.commitStats0.committedInstType::SimdSqrt            0      0.00%     60.83% # Class of committed instruction. (Count)
system.cpu1.commitStats0.committedInstType::SimdFloatAdd           16      0.00%     60.83% # Class of committed instruction. (Count)
system.cpu1.commitStats0.committedInstType::SimdFloatAlu            0      0.00%     60.83% # Class of committed instruction. (Count)
system.cpu1.commitStats0.committedInstType::SimdFloatCmp            0      0.00%     60.83% # Class of committed instruction. (Count)
system.cpu1.commitStats0.committedInstType::SimdFloatCvt            3      0.00%     60.83% # Class of committed instruction. (Count)
system.cpu1.commitStats0.committedInstType::SimdFloatDiv            0      0.00%     60.83% # Class of committed instruction. (Count)
system.cpu1.commitStats0.committedInstType::SimdFloatMisc            0      0.00%     60.83% # Class of committed instruction. (Count)
system.cpu1.commitStats0.committedInstType::SimdFloatMult           12      0.00%     60.83% # Class of committed instruction. (Count)
system.cpu1.commitStats0.committedInstType::SimdFloatMultAcc            0      0.00%     60.83% # Class of committed instruction. (Count)
system.cpu1.commitStats0.committedInstType::SimdFloatMatMultAcc            0      0.00%     60.83% # Class of committed instruction. (Count)
system.cpu1.commitStats0.committedInstType::SimdFloatSqrt            0      0.00%     60.83% # Class of committed instruction. (Count)
system.cpu1.commitStats0.committedInstType::SimdReduceAdd            0      0.00%     60.83% # Class of committed instruction. (Count)
system.cpu1.commitStats0.committedInstType::SimdReduceAlu            0      0.00%     60.83% # Class of committed instruction. (Count)
system.cpu1.commitStats0.committedInstType::SimdReduceCmp            0      0.00%     60.83% # Class of committed instruction. (Count)
system.cpu1.commitStats0.committedInstType::SimdFloatReduceAdd            0      0.00%     60.83% # Class of committed instruction. (Count)
system.cpu1.commitStats0.committedInstType::SimdFloatReduceCmp            0      0.00%     60.83% # Class of committed instruction. (Count)
system.cpu1.commitStats0.committedInstType::SimdAes            0      0.00%     60.83% # Class of committed instruction. (Count)
system.cpu1.commitStats0.committedInstType::SimdAesMix            0      0.00%     60.83% # Class of committed instruction. (Count)
system.cpu1.commitStats0.committedInstType::SimdSha1Hash            0      0.00%     60.83% # Class of committed instruction. (Count)
system.cpu1.commitStats0.committedInstType::SimdSha1Hash2            0      0.00%     60.83% # Class of committed instruction. (Count)
system.cpu1.commitStats0.committedInstType::SimdSha256Hash            0      0.00%     60.83% # Class of committed instruction. (Count)
system.cpu1.commitStats0.committedInstType::SimdSha256Hash2            0      0.00%     60.83% # Class of committed instruction. (Count)
system.cpu1.commitStats0.committedInstType::SimdShaSigma2            0      0.00%     60.83% # Class of committed instruction. (Count)
system.cpu1.commitStats0.committedInstType::SimdShaSigma3            0      0.00%     60.83% # Class of committed instruction. (Count)
system.cpu1.commitStats0.committedInstType::SimdPredAlu            0      0.00%     60.83% # Class of committed instruction. (Count)
system.cpu1.commitStats0.committedInstType::Matrix            0      0.00%     60.83% # Class of committed instruction. (Count)
system.cpu1.commitStats0.committedInstType::MatrixMov            0      0.00%     60.83% # Class of committed instruction. (Count)
system.cpu1.commitStats0.committedInstType::MatrixOP            0      0.00%     60.83% # Class of committed instruction. (Count)
system.cpu1.commitStats0.committedInstType::MemRead     35302321     24.89%     85.72% # Class of committed instruction. (Count)
system.cpu1.commitStats0.committedInstType::MemWrite     19250931     13.57%     99.29% # Class of committed instruction. (Count)
system.cpu1.commitStats0.committedInstType::FloatMemRead       500045      0.35%     99.65% # Class of committed instruction. (Count)
system.cpu1.commitStats0.committedInstType::FloatMemWrite       500278      0.35%    100.00% # Class of committed instruction. (Count)
system.cpu1.commitStats0.committedInstType::IprAccess            0      0.00%    100.00% # Class of committed instruction. (Count)
system.cpu1.commitStats0.committedInstType::InstPrefetch            0      0.00%    100.00% # Class of committed instruction. (Count)
system.cpu1.commitStats0.committedInstType::SimdUnitStrideLoad            0      0.00%    100.00% # Class of committed instruction. (Count)
system.cpu1.commitStats0.committedInstType::SimdUnitStrideStore            0      0.00%    100.00% # Class of committed instruction. (Count)
system.cpu1.commitStats0.committedInstType::SimdUnitStrideMaskLoad            0      0.00%    100.00% # Class of committed instruction. (Count)
system.cpu1.commitStats0.committedInstType::SimdUnitStrideMaskStore            0      0.00%    100.00% # Class of committed instruction. (Count)
system.cpu1.commitStats0.committedInstType::SimdStridedLoad            0      0.00%    100.00% # Class of committed instruction. (Count)
system.cpu1.commitStats0.committedInstType::SimdStridedStore            0      0.00%    100.00% # Class of committed instruction. (Count)
system.cpu1.commitStats0.committedInstType::SimdIndexedLoad            0      0.00%    100.00% # Class of committed instruction. (Count)
system.cpu1.commitStats0.committedInstType::SimdIndexedStore            0      0.00%    100.00% # Class of committed instruction. (Count)
system.cpu1.commitStats0.committedInstType::SimdWholeRegisterLoad            0      0.00%    100.00% # Class of committed instruction. (Count)
system.cpu1.commitStats0.committedInstType::SimdWholeRegisterStore            0      0.00%    100.00% # Class of committed instruction. (Count)
system.cpu1.commitStats0.committedInstType::SimdUnitStrideFaultOnlyFirstLoad            0      0.00%    100.00% # Class of committed instruction. (Count)
system.cpu1.commitStats0.committedInstType::SimdUnitStrideSegmentedLoad            0      0.00%    100.00% # Class of committed instruction. (Count)
system.cpu1.commitStats0.committedInstType::SimdUnitStrideSegmentedStore            0      0.00%    100.00% # Class of committed instruction. (Count)
system.cpu1.commitStats0.committedInstType::SimdUnitStrideSegmentedFaultOnlyFirstLoad            0      0.00%    100.00% # Class of committed instruction. (Count)
system.cpu1.commitStats0.committedInstType::SimdStrideSegmentedLoad            0      0.00%    100.00% # Class of committed instruction. (Count)
system.cpu1.commitStats0.committedInstType::SimdStrideSegmentedStore            0      0.00%    100.00% # Class of committed instruction. (Count)
system.cpu1.commitStats0.committedInstType::SimdExt            0      0.00%    100.00% # Class of committed instruction. (Count)
system.cpu1.commitStats0.committedInstType::SimdFloatExt            0      0.00%    100.00% # Class of committed instruction. (Count)
system.cpu1.commitStats0.committedInstType::SimdConfig            0      0.00%    100.00% # Class of committed instruction. (Count)
system.cpu1.commitStats0.committedInstType::total    141843247                       # Class of committed instruction. (Count)
system.cpu1.commitStats0.committedControl::IsControl     12134643                       # Class of control type instructions committed (Count)
system.cpu1.commitStats0.committedControl::IsDirectControl      8134495                       # Class of control type instructions committed (Count)
system.cpu1.commitStats0.committedControl::IsIndirectControl      4000148                       # Class of control type instructions committed (Count)
system.cpu1.commitStats0.committedControl::IsCondControl      3634338                       # Class of control type instructions committed (Count)
system.cpu1.commitStats0.committedControl::IsUncondControl      8500305                       # Class of control type instructions committed (Count)
system.cpu1.commitStats0.committedControl::IsCall      4000112                       # Class of control type instructions committed (Count)
system.cpu1.commitStats0.committedControl::IsReturn      4000109                       # Class of control type instructions committed (Count)
system.cpu1.dcache.demandHits::cpu1.data     55053128                       # number of demand (read+write) hits (Count)
system.cpu1.dcache.demandHits::total         55053128                       # number of demand (read+write) hits (Count)
system.cpu1.dcache.overallHits::cpu1.data     55053128                       # number of overall hits (Count)
system.cpu1.dcache.overallHits::total        55053128                       # number of overall hits (Count)
system.cpu1.dcache.demandMisses::cpu1.data       250361                       # number of demand (read+write) misses (Count)
system.cpu1.dcache.demandMisses::total         250361                       # number of demand (read+write) misses (Count)
system.cpu1.dcache.overallMisses::cpu1.data       250361                       # number of overall misses (Count)
system.cpu1.dcache.overallMisses::total        250361                       # number of overall misses (Count)
system.cpu1.dcache.demandAccesses::cpu1.data     55303489                       # number of demand (read+write) accesses (Count)
system.cpu1.dcache.demandAccesses::total     55303489                       # number of demand (read+write) accesses (Count)
system.cpu1.dcache.overallAccesses::cpu1.data     55303489                       # number of overall (read+write) accesses (Count)
system.cpu1.dcache.overallAccesses::total     55303489                       # number of overall (read+write) accesses (Count)
system.cpu1.dcache.demandMissRate::cpu1.data     0.004527                       # miss rate for demand accesses (Ratio)
system.cpu1.dcache.demandMissRate::total     0.004527                       # miss rate for demand accesses (Ratio)
system.cpu1.dcache.overallMissRate::cpu1.data     0.004527                       # miss rate for overall accesses (Ratio)
system.cpu1.dcache.overallMissRate::total     0.004527                       # miss rate for overall accesses (Ratio)
system.cpu1.dcache.blockedCycles::no_mshrs            0                       # number of cycles access was blocked (Cycle)
system.cpu1.dcache.blockedCycles::no_targets            0                       # number of cycles access was blocked (Cycle)
system.cpu1.dcache.blockedCauses::no_mshrs            0                       # number of times access was blocked (Count)
system.cpu1.dcache.blockedCauses::no_targets            0                       # number of times access was blocked (Count)
system.cpu1.dcache.avgBlocked::no_mshrs           nan                       # average number of cycles each access was blocked ((Cycle/Count))
system.cpu1.dcache.avgBlocked::no_targets          nan                       # average number of cycles each access was blocked ((Cycle/Count))
system.cpu1.dcache.writebacks::writebacks       126449                       # number of writebacks (Count)
system.cpu1.dcache.writebacks::total           126449                       # number of writebacks (Count)
system.cpu1.dcache.replacements                249291                       # number of replacements (Count)
system.cpu1.dcache.LockedRMWReadReq.hits::cpu1.data           28                       # number of LockedRMWReadReq hits (Count)
system.cpu1.dcache.LockedRMWReadReq.hits::total           28                       # number of LockedRMWReadReq hits (Count)
system.cpu1.dcache.LockedRMWReadReq.misses::cpu1.data           16                       # number of LockedRMWReadReq misses (Count)
system.cpu1.dcache.LockedRMWReadReq.misses::total           16                       # number of LockedRMWReadReq misses (Count)
system.cpu1.dcache.LockedRMWReadReq.accesses::cpu1.data           44                       # number of LockedRMWReadReq accesses(hits+misses) (Count)
system.cpu1.dcache.LockedRMWReadReq.accesses::total           44                       # number of LockedRMWReadReq accesses(hits+misses) (Count)
system.cpu1.dcache.LockedRMWReadReq.missRate::cpu1.data     0.363636                       # miss rate for LockedRMWReadReq accesses (Ratio)
system.cpu1.dcache.LockedRMWReadReq.missRate::total     0.363636                       # miss rate for LockedRMWReadReq accesses (Ratio)
system.cpu1.dcache.LockedRMWWriteReq.hits::cpu1.data           44                       # number of LockedRMWWriteReq hits (Count)
system.cpu1.dcache.LockedRMWWriteReq.hits::total           44                       # number of LockedRMWWriteReq hits (Count)
system.cpu1.dcache.LockedRMWWriteReq.accesses::cpu1.data           44                       # number of LockedRMWWriteReq accesses(hits+misses) (Count)
system.cpu1.dcache.LockedRMWWriteReq.accesses::total           44                       # number of LockedRMWWriteReq accesses(hits+misses) (Count)
system.cpu1.dcache.ReadReq.hits::cpu1.data     35677177                       # number of ReadReq hits (Count)
system.cpu1.dcache.ReadReq.hits::total       35677177                       # number of ReadReq hits (Count)
system.cpu1.dcache.ReadReq.misses::cpu1.data       125145                       # number of ReadReq misses (Count)
system.cpu1.dcache.ReadReq.misses::total       125145                       # number of ReadReq misses (Count)
system.cpu1.dcache.ReadReq.accesses::cpu1.data     35802322                       # number of ReadReq accesses(hits+misses) (Count)
system.cpu1.dcache.ReadReq.accesses::total     35802322                       # number of ReadReq accesses(hits+misses) (Count)
system.cpu1.dcache.ReadReq.missRate::cpu1.data     0.003495                       # miss rate for ReadReq accesses (Ratio)
system.cpu1.dcache.ReadReq.missRate::total     0.003495                       # miss rate for ReadReq accesses (Ratio)
system.cpu1.dcache.WriteReq.hits::cpu1.data     19375951                       # number of WriteReq hits (Count)
system.cpu1.dcache.WriteReq.hits::total      19375951                       # number of WriteReq hits (Count)
system.cpu1.dcache.WriteReq.misses::cpu1.data       125216                       # number of WriteReq misses (Count)
system.cpu1.dcache.WriteReq.misses::total       125216                       # number of WriteReq misses (Count)
system.cpu1.dcache.WriteReq.accesses::cpu1.data     19501167                       # number of WriteReq accesses(hits+misses) (Count)
system.cpu1.dcache.WriteReq.accesses::total     19501167                       # number of WriteReq accesses(hits+misses) (Count)
system.cpu1.dcache.WriteReq.missRate::cpu1.data     0.006421                       # miss rate for WriteReq accesses (Ratio)
system.cpu1.dcache.WriteReq.missRate::total     0.006421                       # miss rate for WriteReq accesses (Ratio)
system.cpu1.dcache.power_state.pwrStateResidencyTicks::UNDEFINED 1289371503000                       # Cumulative time (in ticks) in various power states (Tick)
system.cpu1.dcache.tags.tagsInUse          174.925727                       # Average ticks per tags in use ((Tick/Count))
system.cpu1.dcache.tags.totalRefs            55303577                       # Total number of references to valid blocks. (Count)
system.cpu1.dcache.tags.sampledRefs            250353                       # Sample count of references to valid blocks. (Count)
system.cpu1.dcache.tags.avgRefs            220.902394                       # Average number of references to valid blocks. ((Count/Count))
system.cpu1.dcache.tags.warmupTick       114910866500                       # The tick when the warmup percentage was hit. (Tick)
system.cpu1.dcache.tags.occupancies::cpu1.data   174.925727                       # Average occupied blocks per tick, per requestor ((Count/Tick))
system.cpu1.dcache.tags.avgOccs::cpu1.data     0.170826                       # Average percentage of cache occupancy ((Ratio/Tick))
system.cpu1.dcache.tags.avgOccs::total       0.170826                       # Average percentage of cache occupancy ((Ratio/Tick))
system.cpu1.dcache.tags.occupanciesTaskId::1024         1022                       # Occupied blocks per task id (Count)
system.cpu1.dcache.tags.ageTaskId_1024::0          445                       # Occupied blocks per task id, per block age (Count)
system.cpu1.dcache.tags.ageTaskId_1024::1          577                       # Occupied blocks per task id, per block age (Count)
system.cpu1.dcache.tags.ratioOccsTaskId::1024     0.998047                       # Ratio of occupied blocks and all blocks, per task id (Ratio)
system.cpu1.dcache.tags.tagAccesses         110857507                       # Number of tag accesses (Count)
system.cpu1.dcache.tags.dataAccesses        110857507                       # Number of data accesses (Count)
system.cpu1.dcache.tags.power_state.pwrStateResidencyTicks::UNDEFINED 1289371503000                       # Cumulative time (in ticks) in various power states (Tick)
system.cpu1.dtb_walker_cache.blockedCycles::no_mshrs            0                       # number of cycles access was blocked (Cycle)
system.cpu1.dtb_walker_cache.blockedCycles::no_targets            0                       # number of cycles access was blocked (Cycle)
system.cpu1.dtb_walker_cache.blockedCauses::no_mshrs            0                       # number of times access was blocked (Count)
system.cpu1.dtb_walker_cache.blockedCauses::no_targets            0                       # number of times access was blocked (Count)
system.cpu1.dtb_walker_cache.avgBlocked::no_mshrs          nan                       # average number of cycles each access was blocked ((Cycle/Count))
system.cpu1.dtb_walker_cache.avgBlocked::no_targets          nan                       # average number of cycles each access was blocked ((Cycle/Count))
system.cpu1.dtb_walker_cache.replacements            0                       # number of replacements (Count)
system.cpu1.dtb_walker_cache.power_state.pwrStateResidencyTicks::UNDEFINED 1289371503000                       # Cumulative time (in ticks) in various power states (Tick)
system.cpu1.dtb_walker_cache.tags.tagsInUse            0                       # Average ticks per tags in use ((Tick/Count))
system.cpu1.dtb_walker_cache.tags.totalRefs            0                       # Total number of references to valid blocks. (Count)
system.cpu1.dtb_walker_cache.tags.sampledRefs            0                       # Sample count of references to valid blocks. (Count)
system.cpu1.dtb_walker_cache.tags.avgRefs          nan                       # Average number of references to valid blocks. ((Count/Count))
system.cpu1.dtb_walker_cache.tags.warmupTick            0                       # The tick when the warmup percentage was hit. (Tick)
system.cpu1.dtb_walker_cache.tags.tagAccesses            0                       # Number of tag accesses (Count)
system.cpu1.dtb_walker_cache.tags.dataAccesses            0                       # Number of data accesses (Count)
system.cpu1.dtb_walker_cache.tags.power_state.pwrStateResidencyTicks::UNDEFINED 1289371503000                       # Cumulative time (in ticks) in various power states (Tick)
system.cpu1.exec_context.thread_0.numMatAluAccesses            0                       # Number of matrix alu accesses (Count)
system.cpu1.exec_context.thread_0.numCallsReturns      8000221                       # Number of times a function call or return occured (Count)
system.cpu1.exec_context.thread_0.numMatInsts            0                       # Number of matrix instructions (Count)
system.cpu1.exec_context.thread_0.numIdleCycles 2408358500.723223                       # Number of idle cycles (Cycle)
system.cpu1.exec_context.thread_0.numBusyCycles 170384600.276777                       # Number of busy cycles (Cycle)
system.cpu1.exec_context.thread_0.notIdleFraction     0.066073                       # Percentage of non-idle cycles (Ratio)
system.cpu1.exec_context.thread_0.idleFraction     0.933927                       # Percentage of idle cycles (Ratio)
system.cpu1.executeStats0.numInsts                  0                       # Number of executed instructions (Count)
system.cpu1.executeStats0.numNop                    0                       # Number of nop insts executed (Count)
system.cpu1.executeStats0.numBranches               0                       # Number of branches executed (Count)
system.cpu1.executeStats0.numLoadInsts              0                       # Number of load instructions executed (Count)
system.cpu1.executeStats0.numStoreInsts      55553575                       # Number of stores executed (Count)
system.cpu1.executeStats0.instRate                  0                       # Inst execution rate ((Count/Cycle))
system.cpu1.executeStats0.numFpAluAccesses      1000847                       # Number of float alu accesses (Count)
system.cpu1.executeStats0.numFpRegReads        500931                       # Number of times the floating registers were read (Count)
system.cpu1.executeStats0.numFpRegWrites       500545                       # Number of times the floating registers were written (Count)
system.cpu1.executeStats0.numIntAluAccesses    137291344                       # Number of integer alu accesses (Count)
system.cpu1.executeStats0.numIntRegReads    166761170                       # Number of times the integer registers were read (Count)
system.cpu1.executeStats0.numIntRegWrites    100302417                       # Number of times the integer registers were written (Count)
system.cpu1.executeStats0.numMemRefs         55553575                       # Number of memory refs (Count)
system.cpu1.executeStats0.numMiscRegReads     75822671                       # Number of times the Misc registers were read (Count)
system.cpu1.executeStats0.numVecAluAccesses            0                       # Number of vector alu accesses (Count)
system.cpu1.executeStats0.numDiscardedOps            0                       # Number of ops (including micro ops) which were discarded before commit (Count)
system.cpu1.fetchStats0.numInsts             93238622                       # Number of instructions fetched (thread level) (Count)
system.cpu1.fetchStats0.numOps              141843247                       # Number of ops (including micro ops) fetched (thread level) (Count)
system.cpu1.fetchStats0.fetchRate            0.036157                       # Number of inst fetches per cycle ((Count/Cycle))
system.cpu1.fetchStats0.numBranches          12134643                       # Number of branches fetched (Count)
system.cpu1.fetchStats0.branchRate           0.004706                       # Number of branch fetches per cycle (Ratio)
system.cpu1.fetchStats0.numFetchSuspends            0                       # Number of times Execute suspended instruction fetching (Count)
system.cpu1.icache.demandHits::cpu1.inst    122029773                       # number of demand (read+write) hits (Count)
system.cpu1.icache.demandHits::total        122029773                       # number of demand (read+write) hits (Count)
system.cpu1.icache.overallHits::cpu1.inst    122029773                       # number of overall hits (Count)
system.cpu1.icache.overallHits::total       122029773                       # number of overall hits (Count)
system.cpu1.icache.demandMisses::cpu1.inst          289                       # number of demand (read+write) misses (Count)
system.cpu1.icache.demandMisses::total            289                       # number of demand (read+write) misses (Count)
system.cpu1.icache.overallMisses::cpu1.inst          289                       # number of overall misses (Count)
system.cpu1.icache.overallMisses::total           289                       # number of overall misses (Count)
system.cpu1.icache.demandAccesses::cpu1.inst    122030062                       # number of demand (read+write) accesses (Count)
system.cpu1.icache.demandAccesses::total    122030062                       # number of demand (read+write) accesses (Count)
system.cpu1.icache.overallAccesses::cpu1.inst    122030062                       # number of overall (read+write) accesses (Count)
system.cpu1.icache.overallAccesses::total    122030062                       # number of overall (read+write) accesses (Count)
system.cpu1.icache.demandMissRate::cpu1.inst     0.000002                       # miss rate for demand accesses (Ratio)
system.cpu1.icache.demandMissRate::total     0.000002                       # miss rate for demand accesses (Ratio)
system.cpu1.icache.overallMissRate::cpu1.inst     0.000002                       # miss rate for overall accesses (Ratio)
system.cpu1.icache.overallMissRate::total     0.000002                       # miss rate for overall accesses (Ratio)
system.cpu1.icache.blockedCycles::no_mshrs            0                       # number of cycles access was blocked (Cycle)
system.cpu1.icache.blockedCycles::no_targets            0                       # number of cycles access was blocked (Cycle)
system.cpu1.icache.blockedCauses::no_mshrs            0                       # number of times access was blocked (Count)
system.cpu1.icache.blockedCauses::no_targets            0                       # number of times access was blocked (Count)
system.cpu1.icache.avgBlocked::no_mshrs           nan                       # average number of cycles each access was blocked ((Cycle/Count))
system.cpu1.icache.avgBlocked::no_targets          nan                       # average number of cycles each access was blocked ((Cycle/Count))
system.cpu1.icache.writebacks::writebacks           94                       # number of writebacks (Count)
system.cpu1.icache.writebacks::total               94                       # number of writebacks (Count)
system.cpu1.icache.replacements                    94                       # number of replacements (Count)
system.cpu1.icache.ReadReq.hits::cpu1.inst    122029773                       # number of ReadReq hits (Count)
system.cpu1.icache.ReadReq.hits::total      122029773                       # number of ReadReq hits (Count)
system.cpu1.icache.ReadReq.misses::cpu1.inst          289                       # number of ReadReq misses (Count)
system.cpu1.icache.ReadReq.misses::total          289                       # number of ReadReq misses (Count)
system.cpu1.icache.ReadReq.accesses::cpu1.inst    122030062                       # number of ReadReq accesses(hits+misses) (Count)
system.cpu1.icache.ReadReq.accesses::total    122030062                       # number of ReadReq accesses(hits+misses) (Count)
system.cpu1.icache.ReadReq.missRate::cpu1.inst     0.000002                       # miss rate for ReadReq accesses (Ratio)
system.cpu1.icache.ReadReq.missRate::total     0.000002                       # miss rate for ReadReq accesses (Ratio)
system.cpu1.icache.power_state.pwrStateResidencyTicks::UNDEFINED 1289371503000                       # Cumulative time (in ticks) in various power states (Tick)
system.cpu1.icache.tags.tagsInUse          150.566527                       # Average ticks per tags in use ((Tick/Count))
system.cpu1.icache.tags.totalRefs           122030062                       # Total number of references to valid blocks. (Count)
system.cpu1.icache.tags.sampledRefs               289                       # Sample count of references to valid blocks. (Count)
system.cpu1.icache.tags.avgRefs          422249.349481                       # Average number of references to valid blocks. ((Count/Count))
system.cpu1.icache.tags.warmupTick       114910860000                       # The tick when the warmup percentage was hit. (Tick)
system.cpu1.icache.tags.occupancies::cpu1.inst   150.566527                       # Average occupied blocks per tick, per requestor ((Count/Tick))
system.cpu1.icache.tags.avgOccs::cpu1.inst     0.588150                       # Average percentage of cache occupancy ((Ratio/Tick))
system.cpu1.icache.tags.avgOccs::total       0.588150                       # Average percentage of cache occupancy ((Ratio/Tick))
system.cpu1.icache.tags.occupanciesTaskId::1024          195                       # Occupied blocks per task id (Count)
system.cpu1.icache.tags.ageTaskId_1024::0           17                       # Occupied blocks per task id, per block age (Count)
system.cpu1.icache.tags.ageTaskId_1024::3           26                       # Occupied blocks per task id, per block age (Count)
system.cpu1.icache.tags.ageTaskId_1024::4          152                       # Occupied blocks per task id, per block age (Count)
system.cpu1.icache.tags.ratioOccsTaskId::1024     0.761719                       # Ratio of occupied blocks and all blocks, per task id (Ratio)
system.cpu1.icache.tags.tagAccesses         244060413                       # Number of tag accesses (Count)
system.cpu1.icache.tags.dataAccesses        244060413                       # Number of data accesses (Count)
system.cpu1.icache.tags.power_state.pwrStateResidencyTicks::UNDEFINED 1289371503000                       # Cumulative time (in ticks) in various power states (Tick)
system.cpu1.interrupts.clk_domain.clock          8000                       # Clock period in ticks (Tick)
system.cpu1.itb_walker_cache.blockedCycles::no_mshrs            0                       # number of cycles access was blocked (Cycle)
system.cpu1.itb_walker_cache.blockedCycles::no_targets            0                       # number of cycles access was blocked (Cycle)
system.cpu1.itb_walker_cache.blockedCauses::no_mshrs            0                       # number of times access was blocked (Count)
system.cpu1.itb_walker_cache.blockedCauses::no_targets            0                       # number of times access was blocked (Count)
system.cpu1.itb_walker_cache.avgBlocked::no_mshrs          nan                       # average number of cycles each access was blocked ((Cycle/Count))
system.cpu1.itb_walker_cache.avgBlocked::no_targets          nan                       # average number of cycles each access was blocked ((Cycle/Count))
system.cpu1.itb_walker_cache.replacements            0                       # number of replacements (Count)
system.cpu1.itb_walker_cache.power_state.pwrStateResidencyTicks::UNDEFINED 1289371503000                       # Cumulative time (in ticks) in various power states (Tick)
system.cpu1.itb_walker_cache.tags.tagsInUse            0                       # Average ticks per tags in use ((Tick/Count))
system.cpu1.itb_walker_cache.tags.totalRefs            0                       # Total number of references to valid blocks. (Count)
system.cpu1.itb_walker_cache.tags.sampledRefs            0                       # Sample count of references to valid blocks. (Count)
system.cpu1.itb_walker_cache.tags.avgRefs          nan                       # Average number of references to valid blocks. ((Count/Count))
system.cpu1.itb_walker_cache.tags.warmupTick            0                       # The tick when the warmup percentage was hit. (Tick)
system.cpu1.itb_walker_cache.tags.tagAccesses            0                       # Number of tag accesses (Count)
system.cpu1.itb_walker_cache.tags.dataAccesses            0                       # Number of data accesses (Count)
system.cpu1.itb_walker_cache.tags.power_state.pwrStateResidencyTicks::UNDEFINED 1289371503000                       # Cumulative time (in ticks) in various power states (Tick)
system.cpu1.mmu.dtb.rdAccesses               35802366                       # TLB accesses on read requests (Count)
system.cpu1.mmu.dtb.wrAccesses               19751209                       # TLB accesses on write requests (Count)
system.cpu1.mmu.dtb.rdMisses                     1983                       # TLB misses on read requests (Count)
system.cpu1.mmu.dtb.wrMisses                     1946                       # TLB misses on write requests (Count)
system.cpu1.mmu.dtb.walker.power_state.pwrStateResidencyTicks::UNDEFINED 1289371503000                       # Cumulative time (in ticks) in various power states (Tick)
system.cpu1.mmu.itb.rdAccesses                      0                       # TLB accesses on read requests (Count)
[...]
system.mem_ctrls.dram.avgMemAccLat                nan                       # Average memory access latency per DRAM burst ((Tick/Count))
system.mem_ctrls.dram.readRowHits                   0                       # Number of row buffer hits during reads (Count)
system.mem_ctrls.dram.writeRowHits                  0                       # Number of row buffer hits during writes (Count)
system.mem_ctrls.dram.readRowHitRate              nan                       # Row buffer hit rate for reads (Ratio)
system.mem_ctrls.dram.writeRowHitRate             nan                       # Row buffer hit rate for writes (Ratio)
system.mem_ctrls.dram.dramBytesRead                 0                       # Total bytes read (Byte)
system.mem_ctrls.dram.dramBytesWritten              0                       # Total bytes written (Byte)
system.mem_ctrls.dram.avgRdBW                       0                       # Average DRAM read bandwidth in MiBytes/s ((Byte/Second))
system.mem_ctrls.dram.avgWrBW                       0                       # Average DRAM write bandwidth in MiBytes/s ((Byte/Second))
system.mem_ctrls.dram.peakBW                 12800.00                       # Theoretical peak bandwidth in MiByte/s ((Byte/Second))
system.mem_ctrls.dram.busUtil                    0.00                       # Data bus utilization in percentage (Ratio)
system.mem_ctrls.dram.busUtilRead                0.00                       # Data bus utilization in percentage for reads (Ratio)
system.mem_ctrls.dram.busUtilWrite               0.00                       # Data bus utilization in percentage for writes (Ratio)
system.mem_ctrls.dram.pageHitRate                 nan                       # Row buffer hit rate, read and write combined (Ratio)
system.mem_ctrls.dram.power_state.pwrStateResidencyTicks::UNDEFINED 1289371503000                       # Cumulative time (in ticks) in various power states (Tick)
system.mem_ctrls.dram.rank0.actEnergy               0                       # Energy for activate commands per rank (pJ) (Joule)
system.mem_ctrls.dram.rank0.preEnergy               0                       # Energy for precharge commands per rank (pJ) (Joule)
system.mem_ctrls.dram.rank0.readEnergy              0                       # Energy for read commands per rank (pJ) (Joule)
system.mem_ctrls.dram.rank0.writeEnergy             0                       # Energy for write commands per rank (pJ) (Joule)
system.mem_ctrls.dram.rank0.refreshEnergy            0                       # Energy for refresh commands per rank (pJ) (Joule)
system.mem_ctrls.dram.rank0.actBackEnergy            0                       # Energy for active background per rank (pJ) (Joule)
system.mem_ctrls.dram.rank0.preBackEnergy 495118657440                       # Energy for precharge background per rank (pJ) (Joule)
system.mem_ctrls.dram.rank0.actPowerDownEnergy            0                       # Energy for active power-down per rank (pJ) (Joule)
system.mem_ctrls.dram.rank0.prePowerDownEnergy            0                       # Energy for precharge power-down per rank (pJ) (Joule)
system.mem_ctrls.dram.rank0.selfRefreshEnergy            0                       # Energy for self refresh per rank (pJ) (Joule)
system.mem_ctrls.dram.rank0.totalEnergy  495118657440                       # Total energy per rank (pJ) (Joule)
system.mem_ctrls.dram.rank0.averagePower   384.000000                       # Core power per rank (mW) (Watt)
system.mem_ctrls.dram.rank0.totalIdleTime            0                       # Total Idle time Per DRAM Rank (Tick)
system.mem_ctrls.dram.rank0.pwrStateTime::IDLE 1289371503000                       # Time in different power states (Tick)
system.mem_ctrls.dram.rank0.pwrStateTime::REF            0                       # Time in different power states (Tick)
system.mem_ctrls.dram.rank0.pwrStateTime::SREF            0                       # Time in different power states (Tick)
system.mem_ctrls.dram.rank0.pwrStateTime::PRE_PDN            0                       # Time in different power states (Tick)
system.mem_ctrls.dram.rank0.pwrStateTime::ACT            0                       # Time in different power states (Tick)
system.mem_ctrls.dram.rank0.pwrStateTime::ACT_PDN            0                       # Time in different power states (Tick)
system.mem_ctrls.dram.rank1.actEnergy               0                       # Energy for activate commands per rank (pJ) (Joule)
system.mem_ctrls.dram.rank1.preEnergy               0                       # Energy for precharge commands per rank (pJ) (Joule)
system.mem_ctrls.dram.rank1.readEnergy              0                       # Energy for read commands per rank (pJ) (Joule)
system.mem_ctrls.dram.rank1.writeEnergy             0                       # Energy for write commands per rank (pJ) (Joule)
system.mem_ctrls.dram.rank1.refreshEnergy            0                       # Energy for refresh commands per rank (pJ) (Joule)
system.mem_ctrls.dram.rank1.actBackEnergy            0                       # Energy for active background per rank (pJ) (Joule)
system.mem_ctrls.dram.rank1.preBackEnergy 495118657440                       # Energy for precharge background per rank (pJ) (Joule)
system.mem_ctrls.dram.rank1.actPowerDownEnergy            0                       # Energy for active power-down per rank (pJ) (Joule)
system.mem_ctrls.dram.rank1.prePowerDownEnergy            0                       # Energy for precharge power-down per rank (pJ) (Joule)
system.mem_ctrls.dram.rank1.selfRefreshEnergy            0                       # Energy for self refresh per rank (pJ) (Joule)
system.mem_ctrls.dram.rank1.totalEnergy  495118657440                       # Total energy per rank (pJ) (Joule)
system.mem_ctrls.dram.rank1.averagePower   384.000000                       # Core power per rank (mW) (Watt)
system.mem_ctrls.dram.rank1.totalIdleTime            0                       # Total Idle time Per DRAM Rank (Tick)
system.mem_ctrls.dram.rank1.pwrStateTime::IDLE 1289371503000                       # Time in different power states (Tick)
system.mem_ctrls.dram.rank1.pwrStateTime::REF            0                       # Time in different power states (Tick)
system.mem_ctrls.dram.rank1.pwrStateTime::SREF            0                       # Time in different power states (Tick)
system.mem_ctrls.dram.rank1.pwrStateTime::PRE_PDN            0                       # Time in different power states (Tick)
system.mem_ctrls.dram.rank1.pwrStateTime::ACT            0                       # Time in different power states (Tick)
system.mem_ctrls.dram.rank1.pwrStateTime::ACT_PDN            0                       # Time in different power states (Tick)
system.mem_ctrls.power_state.pwrStateResidencyTicks::UNDEFINED 1289371503000                       # Cumulative time (in ticks) in various power states (Tick)
system.membus.transDist::ReadResp              763225                       # Transaction distribution (Count)
system.membus.transDist::WritebackDirty       1074339                       # Transaction distribution (Count)
system.membus.transDist::CleanEvict            643066                       # Transaction distribution (Count)
system.membus.transDist::UpgradeReq                98                       # Transaction distribution (Count)
system.membus.transDist::UpgradeResp                2                       # Transaction distribution (Count)
system.membus.transDist::ReadExReq             962079                       # Transaction distribution (Count)
system.membus.transDist::ReadExResp            960621                       # Transaction distribution (Count)
system.membus.transDist::ReadSharedReq         763225                       # Transaction distribution (Count)
system.membus.pktCount_system.l2.mem_side_port::system.mem_ctrls.port      5166655                       # Packet count per connected requestor and responder (Count)
system.membus.pktCount_system.l2.mem_side_port::total      5166655                       # Packet count per connected requestor and responder (Count)
system.membus.pktCount::total                 5166655                       # Packet count per connected requestor and responder (Count)
system.membus.pktSize_system.l2.mem_side_port::system.mem_ctrls.port    179083840                       # Cumulative packet size per connected requestor and responder (Byte)
system.membus.pktSize_system.l2.mem_side_port::total    179083840                       # Cumulative packet size per connected requestor and responder (Byte)
system.membus.pktSize::total                179083840                       # Cumulative packet size per connected requestor and responder (Byte)
system.membus.snoops                                0                       # Total snoops (Count)
system.membus.snoopTraffic                          0                       # Total snoop traffic (Byte)
system.membus.snoopFanout::samples            1725402                       # Request fanout histogram (Count)
system.membus.snoopFanout::mean                     0                       # Request fanout histogram (Count)
system.membus.snoopFanout::stdev                    0                       # Request fanout histogram (Count)
system.membus.snoopFanout::underflows               0      0.00%      0.00% # Request fanout histogram (Count)
system.membus.snoopFanout::0                  1725402    100.00%    100.00% # Request fanout histogram (Count)
system.membus.snoopFanout::1                        0      0.00%    100.00% # Request fanout histogram (Count)
system.membus.snoopFanout::overflows                0      0.00%    100.00% # Request fanout histogram (Count)
system.membus.snoopFanout::min_value                0                       # Request fanout histogram (Count)
system.membus.snoopFanout::max_value                0                       # Request fanout histogram (Count)
system.membus.snoopFanout::total              1725402                       # Request fanout histogram (Count)
system.membus.power_state.pwrStateResidencyTicks::UNDEFINED 1289371503000                       # Cumulative time (in ticks) in various power states (Tick)
system.membus.snoop_filter.totRequests        3442807                       # Total number of requests made to the snoop filter. (Count)
system.membus.snoop_filter.hitSingleRequests      1720551                       # Number of requests hitting in the snoop filter with a single holder of the requested data. (Count)
system.membus.snoop_filter.hitMultiRequests            0                       # Number of requests hitting in the snoop filter with multiple (>1) holders of the requested data. (Count)
system.membus.snoop_filter.totSnoops                0                       # Total number of snoops made to the snoop filter. (Count)
system.membus.snoop_filter.hitSingleSnoops            0                       # Number of snoops hitting in the snoop filter with a single holder of the requested data. (Count)
system.membus.snoop_filter.hitMultiSnoops            0                       # Number of snoops hitting in the snoop filter with multiple (>1) holders of the requested data. (Count)
system.tol2bus.transDist::ReadResp             900976                       # Transaction distribution (Count)
system.tol2bus.transDist::WritebackDirty      1296114                       # Transaction distribution (Count)
system.tol2bus.transDist::WritebackClean         1896                       # Transaction distribution (Count)
system.tol2bus.transDist::CleanEvict           677284                       # Transaction distribution (Count)
system.tol2bus.transDist::UpgradeReq              113                       # Transaction distribution (Count)
system.tol2bus.transDist::UpgradeResp             113                       # Transaction distribution (Count)
system.tol2bus.transDist::ReadExReq           1080083                       # Transaction distribution (Count)
system.tol2bus.transDist::ReadExResp          1080083                       # Transaction distribution (Count)
system.tol2bus.transDist::ReadCleanReq           2743                       # Transaction distribution (Count)
system.tol2bus.transDist::ReadSharedReq        898233                       # Transaction distribution (Count)
system.tol2bus.pktCount_system.cpu0.icache.mem_side_port::system.l2.cpu_side_port         5531                       # Packet count per connected requestor and responder (Count)
system.tol2bus.pktCount_system.cpu0.dcache.mem_side_port::system.l2.cpu_side_port      2475327                       # Packet count per connected requestor and responder (Count)
system.tol2bus.pktCount_system.cpu1.icache.mem_side_port::system.l2.cpu_side_port          672                       # Packet count per connected requestor and responder (Count)
system.tol2bus.pktCount_system.cpu1.dcache.mem_side_port::system.l2.cpu_side_port       750045                       # Packet count per connected requestor and responder (Count)
system.tol2bus.pktCount_system.cpu2.icache.mem_side_port::system.l2.cpu_side_port          608                       # Packet count per connected requestor and responder (Count)
system.tol2bus.pktCount_system.cpu2.dcache.mem_side_port::system.l2.cpu_side_port      1328208                       # Packet count per connected requestor and responder (Count)
system.tol2bus.pktCount_system.cpu3.icache.mem_side_port::system.l2.cpu_side_port          571                       # Packet count per connected requestor and responder (Count)
system.tol2bus.pktCount_system.cpu3.dcache.mem_side_port::system.l2.cpu_side_port      1376676                       # Packet count per connected requestor and responder (Count)
system.tol2bus.pktCount::total                5937638                       # Packet count per connected requestor and responder (Count)
system.tol2bus.pktSize_system.cpu0.icache.mem_side_port::system.l2.cpu_side_port       230528                       # Cumulative packet size per connected requestor and responder (Byte)
system.tol2bus.pktSize_system.cpu0.dcache.mem_side_port::system.l2.cpu_side_port     93484288                       # Cumulative packet size per connected requestor and responder (Byte)
system.tol2bus.pktSize_system.cpu1.icache.mem_side_port::system.l2.cpu_side_port        24512                       # Cumulative packet size per connected requestor and responder (Byte)
system.tol2bus.pktSize_system.cpu1.dcache.mem_side_port::system.l2.cpu_side_port     24115328                       # Cumulative packet size per connected requestor and responder (Byte)
system.tol2bus.pktSize_system.cpu2.icache.mem_side_port::system.l2.cpu_side_port        21696                       # Cumulative packet size per connected requestor and responder (Byte)
system.tol2bus.pktSize_system.cpu2.dcache.mem_side_port::system.l2.cpu_side_port     45098240                       # Cumulative packet size per connected requestor and responder (Byte)
system.tol2bus.pktSize_system.cpu3.icache.mem_side_port::system.l2.cpu_side_port        20160                       # Cumulative packet size per connected requestor and responder (Byte)
system.tol2bus.pktSize_system.cpu3.dcache.mem_side_port::system.l2.cpu_side_port     46865664                       # Cumulative packet size per connected requestor and responder (Byte)
system.tol2bus.pktSize::total               209860416                       # Cumulative packet size per connected requestor and responder (Byte)
system.tol2bus.snoops                         2164547                       # Total snoops (Count)
system.tol2bus.snoopTraffic                  68757696                       # Total snoop traffic (Byte)
system.tol2bus.snoopFanout::samples           4145719                       # Request fanout histogram (Count)
system.tol2bus.snoopFanout::mean             0.177135                       # Request fanout histogram (Count)
system.tol2bus.snoopFanout::stdev            0.395245                       # Request fanout histogram (Count)
system.tol2bus.snoopFanout::underflows              0      0.00%      0.00% # Request fanout histogram (Count)
system.tol2bus.snoopFanout::0                 3429156     82.72%     82.72% # Request fanout histogram (Count)
system.tol2bus.snoopFanout::1                  702605     16.95%     99.66% # Request fanout histogram (Count)
system.tol2bus.snoopFanout::2                   10184      0.25%     99.91% # Request fanout histogram (Count)
system.tol2bus.snoopFanout::3                    3715      0.09%    100.00% # Request fanout histogram (Count)
system.tol2bus.snoopFanout::4                      59      0.00%    100.00% # Request fanout histogram (Count)
system.tol2bus.snoopFanout::5                       0      0.00%    100.00% # Request fanout histogram (Count)
system.tol2bus.snoopFanout::6                       0      0.00%    100.00% # Request fanout histogram (Count)
system.tol2bus.snoopFanout::7                       0      0.00%    100.00% # Request fanout histogram (Count)
system.tol2bus.snoopFanout::8                       0      0.00%    100.00% # Request fanout histogram (Count)
system.tol2bus.snoopFanout::9                       0      0.00%    100.00% # Request fanout histogram (Count)
system.tol2bus.snoopFanout::10                      0      0.00%    100.00% # Request fanout histogram (Count)
system.tol2bus.snoopFanout::11                      0      0.00%    100.00% # Request fanout histogram (Count)
system.tol2bus.snoopFanout::12                      0      0.00%    100.00% # Request fanout histogram (Count)
system.tol2bus.snoopFanout::13                      0      0.00%    100.00% # Request fanout histogram (Count)
system.tol2bus.snoopFanout::14                      0      0.00%    100.00% # Request fanout histogram (Count)
system.tol2bus.snoopFanout::15                      0      0.00%    100.00% # Request fanout histogram (Count)
system.tol2bus.snoopFanout::16                      0      0.00%    100.00% # Request fanout histogram (Count)
system.tol2bus.snoopFanout::overflows               0      0.00%    100.00% # Request fanout histogram (Count)
system.tol2bus.snoopFanout::min_value               0                       # Request fanout histogram (Count)
system.tol2bus.snoopFanout::max_value               4                       # Request fanout histogram (Count)
system.tol2bus.snoopFanout::total             4145719                       # Request fanout histogram (Count)
system.tol2bus.power_state.pwrStateResidencyTicks::UNDEFINED 1289371503000                       # Cumulative time (in ticks) in various power states (Tick)
system.tol2bus.snoop_filter.totRequests       3956466                       # Total number of requests made to the snoop filter. (Count)
system.tol2bus.snoop_filter.hitSingleRequests      1967930                       # Number of requests hitting in the snoop filter with a single holder of the requested data. (Count)
system.tol2bus.snoop_filter.hitMultiRequests        25349                       # Number of requests hitting in the snoop filter with multiple (>1) holders of the requested data. (Count)
system.tol2bus.snoop_filter.totSnoops          698579                       # Total number of snoops made to the snoop filter. (Count)
system.tol2bus.snoop_filter.hitSingleSnoops       695538                       # Number of snoops hitting in the snoop filter with a single holder of the requested data. (Count)
system.tol2bus.snoop_filter.hitMultiSnoops         3041                       # Number of snoops hitting in the snoop filter with multiple (>1) holders of the requested data. (Count)
system.voltage_domain.voltage                       1                       # Voltage in Volts (Volt)
system.workload.inst.arm                            0                       # number of arm instructions executed (Count)
system.workload.inst.quiesce                        0                       # number of quiesce instructions executed (Count)

---------- End Simulation Statistics   ----------
